
*** ChampSim Multicore Out-of-Order Simulator ***

Warmup Instructions: 1000000
Simulation Instructions: 10000000
Number of CPUs: 1
LLC sets: 2048
LLC ways: 16
Off-chip DRAM Size: 4096 MB Channels: 1 Width: 64-bit Data Rate: 3200 MT/s

CPU 0 runs /home/virtualcse/Data-Prefetching/ChampSim/dpc3_traces/602.gcc_s-2375B.champsimtrace.xz
Ultra pref. initializing...
Ultra pref. initialized
Ultra pref. initializing...
Ultra pref. initialized

Warmup complete CPU 0 instructions: 1000001 cycles: 503568 (Simulation time: 0 hr 0 min 2 sec) 

Heartbeat CPU 0 instructions: 10000001 cycles: 13716119 heartbeat IPC: 0.729069 cumulative IPC: 0.681171 (Simulation time: 0 hr 0 min 18 sec) 
Finished CPU 0 instructions: 10000000 cycles: 14678791 cumulative IPC: 0.681255 (Simulation time: 0 hr 0 min 20 sec) 

CPU 0 Branch Prediction Accuracy: 92.6791% MPKI: 13.2446 Average ROB Occupancy at Mispredict: 37.4843

ChampSim completed all CPUs

Region of Interest Statistics

CPU 0 cumulative IPC: 0.681255 instructions: 10000000 cycles: 14678791
L1D TOTAL     ACCESS:    7677508  HIT:    7420806  MISS:     256702
L1D LOAD      ACCESS:    2075717  HIT:    1974784  MISS:     100933
L1D RFO       ACCESS:    1421037  HIT:    1412599  MISS:       8438
L1D PREFETCH  ACCESS:    4180754  HIT:    4033423  MISS:     147331
L1D WRITEBACK ACCESS:          0  HIT:          0  MISS:          0
L1D PREFETCH  REQUESTED:   37820908  ISSUED:   33540071  USEFUL:      53007  USELESS:      99975
L1D AVERAGE MISS LATENCY: 36.367 cycles
L1I TOTAL     ACCESS:    1145133  HIT:    1116269  MISS:      28864
L1I LOAD      ACCESS:    1145133  HIT:    1116269  MISS:      28864
L1I RFO       ACCESS:          0  HIT:          0  MISS:          0
L1I PREFETCH  ACCESS:          0  HIT:          0  MISS:          0
L1I WRITEBACK ACCESS:          0  HIT:          0  MISS:          0
L1I PREFETCH  REQUESTED:          0  ISSUED:          0  USEFUL:          0  USELESS:          0
L1I AVERAGE MISS LATENCY: 17.4578 cycles
L2C TOTAL     ACCESS:    2014200  HIT:    1736467  MISS:     277733
L2C LOAD      ACCESS:     128790  HIT:     109596  MISS:      19194
L2C RFO       ACCESS:       8157  HIT:       4453  MISS:       3704
L2C PREFETCH  ACCESS:    1848809  HIT:    1594252  MISS:     254557
L2C WRITEBACK ACCESS:      28444  HIT:      28166  MISS:        278
L2C PREFETCH  REQUESTED:    4559394  ISSUED:    2992942  USEFUL:      47655  USELESS:     211468
L2C AVERAGE MISS LATENCY: 111.173 cycles
LLC TOTAL     ACCESS:     293287  HIT:     170782  MISS:     122505
LLC LOAD      ACCESS:      18762  HIT:      11663  MISS:       7099
LLC RFO       ACCESS:       3677  HIT:       1969  MISS:       1708
LLC PREFETCH  ACCESS:     255016  HIT:     141445  MISS:     113571
LLC WRITEBACK ACCESS:      15832  HIT:      15705  MISS:        127
LLC PREFETCH  REQUESTED:          0  ISSUED:          0  USEFUL:       4619  USELESS:      90871
LLC AVERAGE MISS LATENCY: 180.32 cycles
Major fault: 0 Minor fault: 1904

L1D -512>	(1,89)	(6,3)	(-6,8)	(2,6)	(8,2)	(-101,1)	(3,2)	(14,1)	(0,97)	(-7,1)	(-93,1)	(-56,1)	(27,1)	(-5,1)	(52,1)	(-2,2)	
L1D -511>	(7,1)	(4,1)	(1,1)	(11,1)	(9,1)	(1,0)	(1,0)	(1,0)	(1,0)	(1,0)	(1,0)	(1,0)	(1,0)	(1,0)	(1,0)	(1,0)	
L1D -510>	(1,3)	(6,2)	(0,1)	(4,1)	(5,1)	(1,0)	(1,0)	(1,0)	(1,0)	(1,0)	(1,0)	(1,0)	(1,0)	(1,0)	(1,0)	(1,0)	
L1D -509>	(0,2)	(21,2)	(2,1)	(17,1)	(1,1)	(1,0)	(1,0)	(1,0)	(1,0)	(1,0)	(1,0)	(1,0)	(1,0)	(1,0)	(1,0)	(1,0)	
L1D -508>	(6,1)	(1,1)	(0,2)	(2,5)	(8,1)	(5,1)	(17,1)	(431,1)	(4,1)	(1,0)	(1,0)	(1,0)	(1,0)	(1,0)	(1,0)	(1,0)	
L1D -507>	(15,1)	(0,4)	(11,1)	(3,10)	(29,1)	(1,0)	(1,0)	(1,0)	(1,0)	(1,0)	(1,0)	(1,0)	(1,0)	(1,0)	(1,0)	(1,0)	
L1D -506>	(3,1)	(257,1)	(0,2)	(2,24)	(8,15)	(5,1)	(1,0)	(1,0)	(1,0)	(1,0)	(1,0)	(1,0)	(1,0)	(1,0)	(1,0)	(1,0)	
L1D -505>	(2,3)	(1,2)	(358,1)	(30,1)	(0,1)	(1,0)	(1,0)	(1,0)	(1,0)	(1,0)	(1,0)	(1,0)	(1,0)	(1,0)	(1,0)	(1,0)	
L1D -504>	(8,5)	(0,6)	(3,5)	(10,2)	(2,4)	(11,1)	(21,2)	(9,5)	(1,1)	(16,1)	(1,0)	(1,0)	(1,0)	(1,0)	(1,0)	(1,0)	
L1D -503>	(2,1)	(-2,2)	(1,3)	(8,1)	(407,2)	(12,1)	(1,0)	(1,0)	(1,0)	(1,0)	(1,0)	(1,0)	(1,0)	(1,0)	(1,0)	(1,0)	
L1D -502>	(4,3)	(2,3)	(0,3)	(-1,1)	(3,1)	(1,0)	(1,0)	(1,0)	(1,0)	(1,0)	(1,0)	(1,0)	(1,0)	(1,0)	(1,0)	(1,0)	
L1D -501>	(-9,1)	(0,5)	(-2,1)	(6,2)	(2,1)	(4,1)	(21,2)	(7,1)	(13,1)	(503,1)	(413,1)	(5,1)	(9,1)	(1,0)	(1,0)	(1,0)	
L1D -500>	(0,3)	(8,1)	(-4,2)	(-2,1)	(-1,2)	(1,1)	(7,2)	(1,0)	(1,0)	(1,0)	(1,0)	(1,0)	(1,0)	(1,0)	(1,0)	(1,0)	
L1D -499>	(1,0)	(1,0)	(1,0)	(1,0)	(1,0)	(1,0)	(1,0)	(1,0)	(1,0)	(1,0)	(1,0)	(1,0)	(1,0)	(1,0)	(1,0)	(1,0)	
L1D -498>	(8,2)	(0,5)	(486,1)	(10,1)	(2,2)	(9,1)	(1,0)	(1,0)	(1,0)	(1,0)	(1,0)	(1,0)	(1,0)	(1,0)	(1,0)	(1,0)	
L1D -497>	(144,1)	(0,3)	(8,1)	(2,1)	(-8,1)	(3,3)	(1,0)	(1,0)	(1,0)	(1,0)	(1,0)	(1,0)	(1,0)	(1,0)	(1,0)	(1,0)	
L1D -496>	(-4,1)	(8,1)	(0,2)	(2,1)	(1,0)	(1,0)	(1,0)	(1,0)	(1,0)	(1,0)	(1,0)	(1,0)	(1,0)	(1,0)	(1,0)	(1,0)	
L1D -495>	(2,2)	(12,2)	(6,6)	(-6,1)	(0,3)	(1,1)	(-5,1)	(8,1)	(9,2)	(75,1)	(1,0)	(1,0)	(1,0)	(1,0)	(1,0)	(1,0)	
L1D -494>	(-3,3)	(-2,2)	(2,1)	(1,3)	(13,5)	(12,1)	(0,3)	(68,2)	(1,0)	(1,0)	(1,0)	(1,0)	(1,0)	(1,0)	(1,0)	(1,0)	
L1D -493>	(6,2)	(18,1)	(-1,1)	(360,1)	(30,1)	(2,2)	(1,0)	(1,0)	(1,0)	(1,0)	(1,0)	(1,0)	(1,0)	(1,0)	(1,0)	(1,0)	
L1D -492>	(2,9)	(-4,1)	(0,5)	(6,1)	(7,1)	(-9,1)	(3,1)	(-5,1)	(-3,2)	(-2,1)	(9,1)	(1,0)	(1,0)	(1,0)	(1,0)	(1,0)	
L1D -491>	(-3,15)	(-9,6)	(-2,4)	(455,1)	(0,3)	(404,1)	(1,0)	(1,0)	(1,0)	(1,0)	(1,0)	(1,0)	(1,0)	(1,0)	(1,0)	(1,0)	
L1D -490>	(0,5)	(3,1)	(-10,1)	(2,7)	(12,1)	(6,1)	(1,0)	(1,0)	(1,0)	(1,0)	(1,0)	(1,0)	(1,0)	(1,0)	(1,0)	(1,0)	
L1D -489>	(1,1)	(0,7)	(8,1)	(5,1)	(2,2)	(18,1)	(-3,1)	(-4,1)	(7,1)	(-5,4)	(13,2)	(1,0)	(1,0)	(1,0)	(1,0)	(1,0)	
L1D -488>	(488,4)	(-1,1)	(0,4)	(1,2)	(18,3)	(482,2)	(-2,1)	(-4,1)	(489,1)	(486,2)	(376,1)	(1,0)	(1,0)	(1,0)	(1,0)	(1,0)	
L1D -487>	(-2,1)	(-3,1)	(6,2)	(487,1)	(2,2)	(-9,1)	(18,1)	(1,0)	(1,0)	(1,0)	(1,0)	(1,0)	(1,0)	(1,0)	(1,0)	(1,0)	
L1D -486>	(486,1)	(0,3)	(-12,1)	(2,6)	(489,2)	(1,2)	(39,1)	(-1,1)	(3,2)	(420,2)	(45,1)	(471,1)	(6,3)	(-4,1)	(11,1)	(1,0)	
L1D -485>	(2,3)	(18,1)	(485,1)	(13,1)	(0,1)	(1,0)	(1,0)	(1,0)	(1,0)	(1,0)	(1,0)	(1,0)	(1,0)	(1,0)	(1,0)	(1,0)	
L1D -484>	(486,1)	(0,2)	(2,2)	(484,4)	(21,6)	(-13,2)	(1,0)	(1,0)	(1,0)	(1,0)	(1,0)	(1,0)	(1,0)	(1,0)	(1,0)	(1,0)	
L1D -483>	(2,5)	(9,3)	(1,3)	(480,1)	(489,2)	(0,1)	(18,1)	(11,1)	(1,0)	(1,0)	(1,0)	(1,0)	(1,0)	(1,0)	(1,0)	(1,0)	
L1D -482>	(1,1)	(0,2)	(-6,1)	(-12,1)	(2,3)	(-2,1)	(1,0)	(1,0)	(1,0)	(1,0)	(1,0)	(1,0)	(1,0)	(1,0)	(1,0)	(1,0)	
L1D -481>	(489,2)	(16,3)	(1,1)	(-16,1)	(0,1)	(1,0)	(1,0)	(1,0)	(1,0)	(1,0)	(1,0)	(1,0)	(1,0)	(1,0)	(1,0)	(1,0)	
L1D -480>	(8,2)	(-3,1)	(2,1)	(200,1)	(9,6)	(0,6)	(18,1)	(152,1)	(-6,1)	(1,1)	(1,0)	(1,0)	(1,0)	(1,0)	(1,0)	(1,0)	
L1D -479>	(258,1)	(2,2)	(3,1)	(475,3)	(0,2)	(482,2)	(1,1)	(1,0)	(1,0)	(1,0)	(1,0)	(1,0)	(1,0)	(1,0)	(1,0)	(1,0)	
L1D -478>	(0,3)	(2,3)	(-3,1)	(-12,1)	(4,1)	(3,1)	(30,1)	(1,0)	(1,0)	(1,0)	(1,0)	(1,0)	(1,0)	(1,0)	(1,0)	(1,0)	
L1D -477>	(1,1)	(0,1)	(3,2)	(475,2)	(-2,1)	(2,2)	(476,1)	(5,1)	(9,2)	(18,1)	(6,1)	(13,1)	(1,0)	(1,0)	(1,0)	(1,0)	
L1D -476>	(258,4)	(476,4)	(-1,1)	(0,5)	(1,1)	(261,14)	(39,1)	(-3,2)	(-19,2)	(477,3)	(-8,1)	(90,1)	(1,0)	(1,0)	(1,0)	(1,0)	
L1D -475>	(2,1)	(0,4)	(475,2)	(-1,1)	(1,2)	(502,1)	(90,1)	(1,0)	(1,0)	(1,0)	(1,0)	(1,0)	(1,0)	(1,0)	(1,0)	(1,0)	
L1D -474>	(2,5)	(0,2)	(473,1)	(25,1)	(1,1)	(-1,1)	(-18,1)	(3,1)	(36,1)	(1,0)	(1,0)	(1,0)	(1,0)	(1,0)	(1,0)	(1,0)	
L1D -473>	(0,4)	(2,3)	(475,2)	(393,2)	(-2,1)	(8,2)	(425,1)	(364,1)	(1,0)	(1,0)	(1,0)	(1,0)	(1,0)	(1,0)	(1,0)	(1,0)	
L1D -472>	(1,4)	(2,2)	(50,1)	(8,2)	(5,1)	(470,1)	(0,1)	(-2,2)	(260,2)	(465,1)	(1,0)	(1,0)	(1,0)	(1,0)	(1,0)	(1,0)	
L1D -471>	(1,2)	(473,1)	(477,2)	(-5,1)	(476,1)	(-2,1)	(2,1)	(470,1)	(491,1)	(1,0)	(1,0)	(1,0)	(1,0)	(1,0)	(1,0)	(1,0)	
L1D -470>	(1,1)	(470,1)	(-2,3)	(475,1)	(0,1)	(-10,1)	(27,1)	(343,1)	(290,1)	(3,1)	(1,0)	(1,0)	(1,0)	(1,0)	(1,0)	(1,0)	
L1D -469>	(477,2)	(8,6)	(-6,1)	(6,1)	(105,1)	(1,0)	(1,0)	(1,0)	(1,0)	(1,0)	(1,0)	(1,0)	(1,0)	(1,0)	(1,0)	(1,0)	
L1D -468>	(36,1)	(4,1)	(2,6)	(1,1)	(-2,1)	(0,2)	(-9,3)	(3,1)	(-6,1)	(1,0)	(1,0)	(1,0)	(1,0)	(1,0)	(1,0)	(1,0)	
L1D -467>	(2,1)	(-2,1)	(5,1)	(1,1)	(-9,1)	(1,0)	(1,0)	(1,0)	(1,0)	(1,0)	(1,0)	(1,0)	(1,0)	(1,0)	(1,0)	(1,0)	
L1D -466>	(2,2)	(33,1)	(0,1)	(-35,1)	(5,2)	(12,1)	(8,1)	(1,0)	(1,0)	(1,0)	(1,0)	(1,0)	(1,0)	(1,0)	(1,0)	(1,0)	
L1D -465>	(-2,2)	(0,3)	(6,2)	(10,1)	(2,3)	(80,1)	(25,1)	(1,0)	(1,0)	(1,0)	(1,0)	(1,0)	(1,0)	(1,0)	(1,0)	(1,0)	
L1D -464>	(0,3)	(64,1)	(2,2)	(8,2)	(32,1)	(1,0)	(1,0)	(1,0)	(1,0)	(1,0)	(1,0)	(1,0)	(1,0)	(1,0)	(1,0)	(1,0)	
L1D -463>	(259,24)	(-2,4)	(2,3)	(0,2)	(1,0)	(1,0)	(1,0)	(1,0)	(1,0)	(1,0)	(1,0)	(1,0)	(1,0)	(1,0)	(1,0)	(1,0)	
L1D -462>	(0,4)	(2,3)	(10,1)	(4,1)	(1,0)	(1,0)	(1,0)	(1,0)	(1,0)	(1,0)	(1,0)	(1,0)	(1,0)	(1,0)	(1,0)	(1,0)	
L1D -461>	(-30,1)	(-3,1)	(-9,1)	(9,1)	(1,0)	(1,0)	(1,0)	(1,0)	(1,0)	(1,0)	(1,0)	(1,0)	(1,0)	(1,0)	(1,0)	(1,0)	
L1D -460>	(259,72)	(1,2)	(2,2)	(145,1)	(-2,1)	(1,0)	(1,0)	(1,0)	(1,0)	(1,0)	(1,0)	(1,0)	(1,0)	(1,0)	(1,0)	(1,0)	
L1D -459>	(6,2)	(2,1)	(8,2)	(1,1)	(12,1)	(462,1)	(-6,1)	(3,1)	(0,1)	(1,0)	(1,0)	(1,0)	(1,0)	(1,0)	(1,0)	(1,0)	
L1D -458>	(0,3)	(475,2)	(295,3)	(-2,2)	(12,1)	(-1,1)	(2,1)	(4,1)	(24,1)	(1,0)	(1,0)	(1,0)	(1,0)	(1,0)	(1,0)	(1,0)	
L1D -457>	(0,2)	(1,1)	(-6,2)	(6,1)	(-7,1)	(1,0)	(1,0)	(1,0)	(1,0)	(1,0)	(1,0)	(1,0)	(1,0)	(1,0)	(1,0)	(1,0)	
L1D -456>	(8,4)	(2,2)	(1,2)	(0,1)	(416,1)	(24,1)	(1,0)	(1,0)	(1,0)	(1,0)	(1,0)	(1,0)	(1,0)	(1,0)	(1,0)	(1,0)	
L1D -455>	(-10,4)	(195,3)	(-8,2)	(1,1)	(53,1)	(-1,1)	(-9,1)	(-3,1)	(0,1)	(-2,1)	(1,0)	(1,0)	(1,0)	(1,0)	(1,0)	(1,0)	
L1D -454>	(259,51)	(258,6)	(1,1)	(0,2)	(-3,1)	(21,8)	(454,6)	(-12,1)	(1,0)	(1,0)	(1,0)	(1,0)	(1,0)	(1,0)	(1,0)	(1,0)	
L1D -453>	(0,5)	(3,2)	(1,1)	(4,1)	(-5,2)	(2,1)	(232,1)	(-2,1)	(-32,1)	(25,1)	(1,0)	(1,0)	(1,0)	(1,0)	(1,0)	(1,0)	
L1D -452>	(21,1)	(20,1)	(1,5)	(-2,1)	(335,3)	(8,2)	(2,1)	(4,1)	(10,1)	(0,1)	(452,1)	(266,1)	(25,1)	(1,0)	(1,0)	(1,0)	
L1D -451>	(115,1)	(7,3)	(1,3)	(8,1)	(0,2)	(-2,1)	(2,1)	(1,0)	(1,0)	(1,0)	(1,0)	(1,0)	(1,0)	(1,0)	(1,0)	(1,0)	
L1D -450>	(257,3)	(0,5)	(452,1)	(3,1)	(2,1)	(7,1)	(117,3)	(387,1)	(-6,2)	(10,3)	(-9,2)	(1,2)	(4,1)	(264,1)	(-35,2)	(6,1)	
L1D -449>	(-12,1)	(-3,1)	(0,3)	(120,2)	(118,1)	(1,1)	(7,3)	(10,1)	(2,1)	(8,1)	(1,0)	(1,0)	(1,0)	(1,0)	(1,0)	(1,0)	
L1D -448>	(448,17)	(0,20)	(352,5)	(-24,4)	(2,6)	(-6,3)	(1,1)	(110,1)	(21,8)	(120,1)	(45,1)	(8,2)	(-60,1)	(1,0)	(1,0)	(1,0)	
L1D -447>	(0,4)	(105,1)	(3,1)	(-5,1)	(101,1)	(1,0)	(1,0)	(1,0)	(1,0)	(1,0)	(1,0)	(1,0)	(1,0)	(1,0)	(1,0)	(1,0)	
L1D -446>	(380,3)	(-22,1)	(12,1)	(0,1)	(1,0)	(1,0)	(1,0)	(1,0)	(1,0)	(1,0)	(1,0)	(1,0)	(1,0)	(1,0)	(1,0)	(1,0)	
L1D -445>	(448,15)	(237,7)	(0,25)	(21,1)	(25,1)	(-2,3)	(2,6)	(1,3)	(24,1)	(1,0)	(1,0)	(1,0)	(1,0)	(1,0)	(1,0)	(1,0)	
L1D -444>	(1,2)	(8,1)	(441,1)	(12,1)	(1,0)	(1,0)	(1,0)	(1,0)	(1,0)	(1,0)	(1,0)	(1,0)	(1,0)	(1,0)	(1,0)	(1,0)	
L1D -443>	(1,3)	(2,4)	(0,1)	(468,3)	(-2,1)	(-1,1)	(-16,1)	(7,1)	(32,1)	(33,1)	(452,1)	(8,1)	(1,0)	(1,0)	(1,0)	(1,0)	
L1D -442>	(16,1)	(2,1)	(395,1)	(-1,2)	(100,1)	(47,1)	(430,1)	(1,0)	(1,0)	(1,0)	(1,0)	(1,0)	(1,0)	(1,0)	(1,0)	(1,0)	
L1D -441>	(1,1)	(-6,1)	(153,1)	(0,1)	(2,1)	(1,0)	(1,0)	(1,0)	(1,0)	(1,0)	(1,0)	(1,0)	(1,0)	(1,0)	(1,0)	(1,0)	
L1D -440>	(6,1)	(1,3)	(440,1)	(2,2)	(-32,1)	(390,1)	(8,1)	(0,1)	(20,1)	(1,0)	(1,0)	(1,0)	(1,0)	(1,0)	(1,0)	(1,0)	
L1D -439>	(1,2)	(-2,1)	(-1,1)	(13,1)	(-11,1)	(1,0)	(1,0)	(1,0)	(1,0)	(1,0)	(1,0)	(1,0)	(1,0)	(1,0)	(1,0)	(1,0)	
L1D -438>	(190,1)	(9,3)	(2,2)	(-2,1)	(0,3)	(440,1)	(430,2)	(1,0)	(1,0)	(1,0)	(1,0)	(1,0)	(1,0)	(1,0)	(1,0)	(1,0)	
L1D -437>	(0,5)	(-2,1)	(1,5)	(422,1)	(4,2)	(-9,2)	(156,1)	(1,0)	(1,0)	(1,0)	(1,0)	(1,0)	(1,0)	(1,0)	(1,0)	(1,0)	
L1D -436>	(1,5)	(2,2)	(0,1)	(1,0)	(1,0)	(1,0)	(1,0)	(1,0)	(1,0)	(1,0)	(1,0)	(1,0)	(1,0)	(1,0)	(1,0)	(1,0)	
L1D -435>	(1,3)	(3,2)	(435,6)	(401,1)	(412,1)	(422,1)	(426,1)	(5,3)	(-32,1)	(10,9)	(-45,1)	(0,1)	(21,6)	(434,1)	(1,0)	(1,0)	
L1D -434>	(0,2)	(-5,1)	(-3,1)	(1,0)	(1,0)	(1,0)	(1,0)	(1,0)	(1,0)	(1,0)	(1,0)	(1,0)	(1,0)	(1,0)	(1,0)	(1,0)	
L1D -433>	(2,5)	(220,1)	(-32,2)	(0,1)	(5,1)	(1,0)	(1,0)	(1,0)	(1,0)	(1,0)	(1,0)	(1,0)	(1,0)	(1,0)	(1,0)	(1,0)	
L1D -432>	(0,4)	(-2,1)	(2,1)	(-57,1)	(1,1)	(450,1)	(434,1)	(-33,1)	(9,1)	(368,1)	(376,1)	(1,0)	(1,0)	(1,0)	(1,0)	(1,0)	
L1D -431>	(400,4)	(0,2)	(2,1)	(3,2)	(1,0)	(1,0)	(1,0)	(1,0)	(1,0)	(1,0)	(1,0)	(1,0)	(1,0)	(1,0)	(1,0)	(1,0)	
L1D -430>	(0,4)	(1,2)	(-2,1)	(5,1)	(450,1)	(205,1)	(400,1)	(45,1)	(1,0)	(1,0)	(1,0)	(1,0)	(1,0)	(1,0)	(1,0)	(1,0)	
L1D -429>	(-2,1)	(0,2)	(1,1)	(5,1)	(150,1)	(1,0)	(1,0)	(1,0)	(1,0)	(1,0)	(1,0)	(1,0)	(1,0)	(1,0)	(1,0)	(1,0)	
L1D -428>	(0,7)	(4,1)	(-2,2)	(2,2)	(1,1)	(-80,1)	(1,0)	(1,0)	(1,0)	(1,0)	(1,0)	(1,0)	(1,0)	(1,0)	(1,0)	(1,0)	
L1D -427>	(2,2)	(0,3)	(428,1)	(-2,2)	(385,1)	(480,1)	(440,1)	(7,1)	(1,3)	(21,1)	(418,2)	(33,1)	(4,1)	(225,1)	(1,0)	(1,0)	
L1D -426>	(426,11)	(404,8)	(6,1)	(2,4)	(-9,3)	(243,1)	(0,1)	(422,1)	(1,0)	(1,0)	(1,0)	(1,0)	(1,0)	(1,0)	(1,0)	(1,0)	
L1D -425>	(0,6)	(285,1)	(-2,4)	(1,5)	(427,1)	(421,1)	(425,1)	(2,5)	(215,3)	(3,1)	(24,2)	(-9,2)	(400,2)	(1,0)	(1,0)	(1,0)	
L1D -424>	(0,4)	(36,1)	(376,1)	(1,0)	(1,0)	(1,0)	(1,0)	(1,0)	(1,0)	(1,0)	(1,0)	(1,0)	(1,0)	(1,0)	(1,0)	(1,0)	
L1D -423>	(-9,1)	(-2,4)	(-20,2)	(2,4)	(1,1)	(480,1)	(0,2)	(195,1)	(1,0)	(1,0)	(1,0)	(1,0)	(1,0)	(1,0)	(1,0)	(1,0)	
L1D -422>	(422,8)	(404,12)	(-6,1)	(2,2)	(6,1)	(0,1)	(192,1)	(117,1)	(1,0)	(1,0)	(1,0)	(1,0)	(1,0)	(1,0)	(1,0)	(1,0)	
L1D -421>	(1,3)	(15,1)	(0,4)	(2,2)	(421,1)	(9,1)	(1,0)	(1,0)	(1,0)	(1,0)	(1,0)	(1,0)	(1,0)	(1,0)	(1,0)	(1,0)	
L1D -420>	(0,3)	(85,3)	(195,1)	(6,3)	(421,1)	(-2,5)	(10,1)	(15,1)	(165,1)	(1,0)	(1,0)	(1,0)	(1,0)	(1,0)	(1,0)	(1,0)	
L1D -419>	(421,1)	(1,1)	(18,1)	(-9,2)	(-4,1)	(-3,1)	(419,1)	(59,1)	(1,0)	(1,0)	(1,0)	(1,0)	(1,0)	(1,0)	(1,0)	(1,0)	
L1D -418>	(2,3)	(-2,1)	(0,9)	(1,2)	(375,2)	(60,3)	(-75,1)	(11,1)	(1,0)	(1,0)	(1,0)	(1,0)	(1,0)	(1,0)	(1,0)	(1,0)	
L1D -417>	(1,11)	(0,4)	(416,1)	(12,2)	(419,1)	(417,1)	(-2,1)	(25,1)	(3,1)	(-15,1)	(1,0)	(1,0)	(1,0)	(1,0)	(1,0)	(1,0)	
L1D -416>	(416,8)	(1,7)	(0,10)	(417,1)	(415,1)	(12,1)	(16,1)	(383,2)	(203,1)	(13,1)	(-2,2)	(3,2)	(-18,1)	(189,1)	(-5,1)	(2,1)	
L1D -415>	(400,1)	(7,8)	(408,3)	(4,1)	(-10,1)	(0,3)	(412,2)	(2,1)	(166,1)	(1,2)	(-2,3)	(128,1)	(12,1)	(413,1)	(305,1)	(415,1)	
L1D -414>	(7,1)	(369,1)	(305,1)	(410,1)	(0,20)	(468,1)	(-18,2)	(-6,1)	(1,2)	(398,1)	(3,2)	(16,1)	(1,0)	(1,0)	(1,0)	(1,0)	
L1D -413>	(1,6)	(0,15)	(-2,5)	(238,1)	(10,5)	(2,4)	(412,4)	(54,1)	(7,1)	(1,0)	(1,0)	(1,0)	(1,0)	(1,0)	(1,0)	(1,0)	
L1D -412>	(412,18)	(0,12)	(1,6)	(196,3)	(2,3)	(404,12)	(-2,2)	(180,1)	(414,1)	(495,3)	(413,2)	(-1,2)	(8,1)	(408,1)	(-5,1)	(4,1)	
L1D -411>	(376,1)	(2,1)	(410,2)	(9,1)	(27,1)	(6,1)	(411,1)	(1,0)	(1,0)	(1,0)	(1,0)	(1,0)	(1,0)	(1,0)	(1,0)	(1,0)	
L1D -410>	(410,13)	(401,4)	(412,4)	(422,4)	(426,4)	(0,1)	(2,2)	(80,1)	(-2,3)	(21,8)	(4,1)	(-10,1)	(414,3)	(5,1)	(1,0)	(1,0)	
L1D -409>	(-4,1)	(2,1)	(-3,1)	(11,1)	(1,0)	(1,0)	(1,0)	(1,0)	(1,0)	(1,0)	(1,0)	(1,0)	(1,0)	(1,0)	(1,0)	(1,0)	
L1D -408>	(4,1)	(408,2)	(-2,1)	(410,1)	(0,7)	(7,1)	(2,4)	(405,1)	(80,1)	(407,2)	(-6,2)	(3,1)	(47,1)	(1,0)	(1,0)	(1,0)	
L1D -407>	(7,1)	(0,4)	(407,4)	(1,5)	(2,3)	(-6,1)	(-18,1)	(-4,2)	(1,0)	(1,0)	(1,0)	(1,0)	(1,0)	(1,0)	(1,0)	(1,0)	
L1D -406>	(95,1)	(190,1)	(168,1)	(-2,2)	(411,1)	(425,1)	(426,1)	(26,2)	(0,2)	(390,2)	(-76,2)	(161,1)	(3,1)	(1,0)	(1,0)	(1,0)	
L1D -405>	(0,8)	(1,6)	(136,1)	(2,5)	(420,2)	(-2,1)	(6,1)	(95,2)	(4,1)	(-1,2)	(-18,2)	(405,1)	(1,0)	(1,0)	(1,0)	(1,0)	
L1D -404>	(399,1)	(0,17)	(410,15)	(435,3)	(401,2)	(412,4)	(422,5)	(426,3)	(21,1)	(404,2)	(414,1)	(4,1)	(1,0)	(1,0)	(1,0)	(1,0)	
L1D -403>	(403,1)	(-3,8)	(1,5)	(2,5)	(345,1)	(253,1)	(407,1)	(415,3)	(10,10)	(75,1)	(8,1)	(-2,6)	(-1,1)	(26,1)	(0,3)	(-10,1)	
L1D -402>	(-8,1)	(398,1)	(-2,2)	(0,4)	(1,2)	(403,1)	(2,6)	(-1,1)	(8,1)	(-76,1)	(4,1)	(6,1)	(3,1)	(1,0)	(1,0)	(1,0)	
L1D -401>	(401,6)	(404,9)	(161,1)	(0,3)	(2,2)	(32,1)	(33,1)	(430,2)	(1,1)	(-3,1)	(1,0)	(1,0)	(1,0)	(1,0)	(1,0)	(1,0)	
L1D -400>	(100,1)	(400,2)	(-4,2)	(430,2)	(-2,4)	(1,1)	(0,6)	(2,4)	(336,2)	(292,1)	(45,1)	(3,2)	(160,1)	(26,1)	(8,4)	(161,1)	
L1D -399>	(399,4)	(401,1)	(3,2)	(-3,1)	(398,1)	(0,1)	(1,1)	(6,2)	(-6,2)	(21,2)	(-24,1)	(26,1)	(1,0)	(1,0)	(1,0)	(1,0)	
L1D -398>	(0,7)	(399,1)	(2,7)	(1,2)	(398,2)	(-4,1)	(410,1)	(-2,1)	(-5,2)	(1,0)	(1,0)	(1,0)	(1,0)	(1,0)	(1,0)	(1,0)	
L1D -397>	(-3,1)	(240,1)	(-2,1)	(0,4)	(2,3)	(1,2)	(4,2)	(26,1)	(27,1)	(1,0)	(1,0)	(1,0)	(1,0)	(1,0)	(1,0)	(1,0)	
L1D -396>	(396,4)	(-2,1)	(-1,1)	(390,1)	(2,1)	(24,2)	(0,4)	(63,1)	(-6,2)	(394,1)	(397,1)	(4,2)	(425,1)	(12,1)	(1,0)	(1,0)	
L1D -395>	(397,2)	(-1,1)	(0,42)	(2,1)	(1,4)	(-10,1)	(5,3)	(148,41)	(3,9)	(-8,4)	(414,1)	(361,1)	(339,1)	(355,1)	(-9,2)	(395,1)	
L1D -394>	(3,1)	(-1,1)	(396,1)	(-84,1)	(0,2)	(6,1)	(1,7)	(-54,1)	(394,1)	(4,1)	(390,1)	(369,1)	(1,0)	(1,0)	(1,0)	(1,0)	
L1D -393>	(1,104)	(168,1)	(-3,1)	(-2,1)	(2,4)	(0,5)	(390,1)	(406,1)	(395,1)	(212,1)	(8,2)	(6,1)	(1,0)	(1,0)	(1,0)	(1,0)	
L1D -392>	(6,14)	(24,14)	(392,3)	(0,7)	(160,3)	(2,5)	(360,1)	(400,2)	(393,1)	(44,1)	(1,2)	(-11,3)	(276,1)	(-16,1)	(7,1)	(96,1)	
L1D -391>	(40,1)	(336,1)	(2,1)	(0,5)	(1,11)	(21,1)	(-1,1)	(1,0)	(1,0)	(1,0)	(1,0)	(1,0)	(1,0)	(1,0)	(1,0)	(1,0)	
L1D -390>	(3,1)	(1,7)	(6,1)	(15,4)	(-4,1)	(2,6)	(0,5)	(390,1)	(310,2)	(312,3)	(-6,4)	(392,1)	(-25,1)	(387,1)	(378,2)	(1,0)	
L1D -389>	(-1,1)	(68,1)	(388,1)	(0,5)	(254,1)	(1,22)	(399,1)	(359,2)	(337,2)	(14,1)	(110,1)	(8,1)	(1,0)	(1,0)	(1,0)	(1,0)	
L1D -388>	(130,1)	(393,1)	(0,9)	(390,4)	(2,3)	(3,2)	(1,3)	(388,1)	(310,4)	(360,3)	(337,1)	(-2,1)	(12,1)	(1,0)	(1,0)	(1,0)	
L1D -387>	(205,3)	(385,1)	(2,2)	(1,14)	(6,3)	(4,1)	(0,1)	(-4,2)	(387,1)	(36,1)	(1,0)	(1,0)	(1,0)	(1,0)	(1,0)	(1,0)	
L1D -386>	(9,1)	(-25,1)	(-6,1)	(1,11)	(1,0)	(1,0)	(1,0)	(1,0)	(1,0)	(1,0)	(1,0)	(1,0)	(1,0)	(1,0)	(1,0)	(1,0)	
L1D -385>	(380,1)	(0,2)	(-2,1)	(2,2)	(185,1)	(85,1)	(375,1)	(475,1)	(386,2)	(385,1)	(384,1)	(34,1)	(415,1)	(1,0)	(1,0)	(1,0)	
L1D -384>	(0,2)	(84,2)	(8,3)	(3,2)	(-9,3)	(-8,26)	(1,3)	(384,23)	(7,1)	(17,1)	(22,1)	(27,1)	(32,1)	(34,1)	(-5,2)	(-6,3)	
L1D -383>	(308,1)	(2,1)	(0,9)	(-25,2)	(-2,3)	(1,17)	(5,1)	(389,1)	(381,1)	(80,1)	(383,2)	(1,0)	(1,0)	(1,0)	(1,0)	(1,0)	
L1D -382>	(1,2)	(384,1)	(7,1)	(0,5)	(382,2)	(8,1)	(331,1)	(-1,1)	(22,1)	(2,1)	(370,1)	(-28,2)	(144,1)	(1,0)	(1,0)	(1,0)	
L1D -381>	(-72,4)	(2,1)	(284,1)	(0,10)	(-6,4)	(237,2)	(3,2)	(-12,9)	(-28,1)	(1,16)	(-13,1)	(213,1)	(18,1)	(8,1)	(7,1)	(1,0)	
L1D -380>	(18,1)	(0,4)	(1,13)	(2,4)	(310,1)	(340,1)	(-2,1)	(-4,6)	(-8,8)	(-9,1)	(359,1)	(3,1)	(385,1)	(1,0)	(1,0)	(1,0)	
L1D -379>	(-22,1)	(-1,3)	(0,6)	(379,3)	(220,1)	(225,1)	(27,1)	(1,2)	(1,0)	(1,0)	(1,0)	(1,0)	(1,0)	(1,0)	(1,0)	(1,0)	
L1D -378>	(0,13)	(3,3)	(1,3)	(-52,3)	(-2,1)	(2,1)	(-6,4)	(380,1)	(-129,1)	(-1,3)	(-5,1)	(-18,2)	(378,1)	(398,1)	(18,2)	(8,1)	
L1D -377>	(-9,4)	(-7,2)	(2,4)	(0,8)	(-6,1)	(1,2)	(376,2)	(-1,1)	(44,1)	(45,1)	(7,1)	(12,1)	(-3,1)	(-2,1)	(1,0)	(1,0)	
L1D -376>	(264,4)	(80,10)	(0,3)	(385,2)	(-8,2)	(377,4)	(-2,3)	(-4,1)	(376,8)	(337,1)	(1,1)	(32,1)	(8,1)	(40,2)	(370,1)	(86,1)	
L1D -375>	(365,1)	(1,2)	(2,8)	(-2,2)	(230,1)	(0,4)	(375,1)	(185,1)	(5,1)	(12,1)	(-30,1)	(-15,1)	(200,1)	(25,1)	(4,1)	(9,1)	
L1D -374>	(3,1)	(0,2)	(10,2)	(2,2)	(1,1)	(374,1)	(1,0)	(1,0)	(1,0)	(1,0)	(1,0)	(1,0)	(1,0)	(1,0)	(1,0)	(1,0)	
L1D -373>	(373,9)	(351,10)	(0,5)	(-1,1)	(371,1)	(1,5)	(2,4)	(372,2)	(370,1)	(233,2)	(128,1)	(-2,1)	(375,1)	(-9,5)	(-8,8)	(-6,3)	
L1D -372>	(78,1)	(0,7)	(330,1)	(374,1)	(3,2)	(90,1)	(6,1)	(1,0)	(1,0)	(1,0)	(1,0)	(1,0)	(1,0)	(1,0)	(1,0)	(1,0)	
L1D -371>	(370,1)	(-2,3)	(5,1)	(1,1)	(-12,1)	(0,1)	(-5,1)	(2,2)	(368,1)	(1,0)	(1,0)	(1,0)	(1,0)	(1,0)	(1,0)	(1,0)	
L1D -370>	(2,1)	(1,1)	(0,11)	(28,2)	(-2,11)	(195,1)	(370,1)	(330,2)	(-23,1)	(-1,1)	(386,1)	(376,1)	(22,1)	(-3,1)	(427,1)	(3,2)	
L1D -369>	(4,2)	(368,2)	(351,1)	(-4,4)	(1,2)	(10,1)	(0,13)	(-5,1)	(-9,2)	(382,2)	(1,0)	(1,0)	(1,0)	(1,0)	(1,0)	(1,0)	
L1D -368>	(0,23)	(1,5)	(2,8)	(-5,1)	(375,1)	(-2,1)	(6,2)	(370,2)	(8,5)	(-6,3)	(378,2)	(368,1)	(360,1)	(-32,1)	(16,2)	(-17,1)	
L1D -367>	(-1,2)	(2,5)	(-2,6)	(0,5)	(3,2)	(379,1)	(1,2)	(-5,1)	(367,1)	(40,1)	(1,0)	(1,0)	(1,0)	(1,0)	(1,0)	(1,0)	
L1D -366>	(366,8)	(351,12)	(365,1)	(-3,1)	(3,2)	(2,1)	(448,1)	(367,2)	(252,1)	(0,4)	(64,1)	(1,1)	(6,7)	(9,1)	(1,0)	(1,0)	
L1D -365>	(281,1)	(-2,10)	(0,11)	(2,1)	(1,11)	(104,1)	(3,1)	(7,1)	(-3,3)	(365,1)	(-140,1)	(23,1)	(60,1)	(1,0)	(1,0)	(1,0)	
L1D -364>	(5,1)	(39,5)	(3,4)	(1,1)	(0,12)	(360,2)	(370,1)	(2,1)	(368,4)	(-10,1)	(386,1)	(364,2)	(6,1)	(154,1)	(1,0)	(1,0)	
L1D -363>	(3,2)	(2,6)	(1,2)	(-2,4)	(0,9)	(387,1)	(8,1)	(6,1)	(4,1)	(320,2)	(363,1)	(-12,1)	(1,0)	(1,0)	(1,0)	(1,0)	
L1D -362>	(0,6)	(-1,2)	(-33,1)	(362,2)	(2,2)	(360,1)	(364,1)	(378,3)	(384,9)	(-120,3)	(-128,3)	(8,1)	(363,2)	(365,2)	(-52,1)	(-21,1)	
L1D -361>	(0,7)	(356,2)	(1,4)	(359,1)	(304,1)	(10,2)	(-2,1)	(22,2)	(-1,3)	(-85,1)	(31,1)	(14,1)	(3,1)	(362,1)	(361,1)	(1,0)	
L1D -360>	(356,4)	(0,27)	(-6,4)	(95,1)	(8,4)	(-3,1)	(36,2)	(6,1)	(96,5)	(368,5)	(361,1)	(2,8)	(70,1)	(1,5)	(362,2)	(32,2)	
L1D -359>	(5,1)	(359,7)	(351,11)	(0,5)	(-3,1)	(355,1)	(46,1)	(-40,1)	(-1,2)	(-10,7)	(1,1)	(50,1)	(51,1)	(1,0)	(1,0)	(1,0)	
L1D -358>	(6,3)	(3,1)	(0,5)	(1,3)	(355,2)	(-2,8)	(5,1)	(357,1)	(2,6)	(358,1)	(362,1)	(-50,2)	(333,1)	(335,1)	(409,1)	(367,1)	
L1D -357>	(357,14)	(348,4)	(359,6)	(366,4)	(373,4)	(0,1)	(5,1)	(-8,1)	(447,1)	(355,1)	(358,1)	(2,4)	(1,3)	(356,1)	(6,2)	(21,8)	
L1D -356>	(0,14)	(356,2)	(1,7)	(227,1)	(3,1)	(8,1)	(357,1)	(-4,1)	(365,1)	(352,3)	(348,2)	(-5,1)	(54,1)	(1,0)	(1,0)	(1,0)	
L1D -355>	(-1,1)	(0,9)	(1,7)	(5,2)	(-2,7)	(390,2)	(2,1)	(-95,1)	(224,1)	(370,1)	(1,0)	(1,0)	(1,0)	(1,0)	(1,0)	(1,0)	
L1D -354>	(357,1)	(181,1)	(1,2)	(0,8)	(350,1)	(355,1)	(-136,3)	(376,3)	(-128,3)	(8,2)	(2,1)	(-6,1)	(3,1)	(1,0)	(1,0)	(1,0)	
L1D -353>	(6,1)	(1,7)	(2,8)	(0,8)	(-2,1)	(-3,1)	(8,1)	(-9,2)	(3,1)	(352,2)	(-1,1)	(1,0)	(1,0)	(1,0)	(1,0)	(1,0)	
L1D -352>	(0,9)	(8,4)	(40,5)	(448,5)	(352,1)	(5,1)	(1,2)	(64,2)	(-24,3)	(2,4)	(-2,2)	(7,1)	(280,1)	(152,1)	(96,1)	(-8,2)	
L1D -351>	(3,1)	(235,3)	(0,17)	(357,15)	(348,2)	(359,5)	(366,4)	(373,3)	(21,1)	(-3,2)	(-10,5)	(73,1)	(2,1)	(-9,1)	(-2,1)	(-1,1)	
L1D -350>	(0,7)	(2,5)	(357,2)	(348,1)	(395,1)	(-2,1)	(352,3)	(5,1)	(446,1)	(12,1)	(235,2)	(1,0)	(1,0)	(1,0)	(1,0)	(1,0)	
L1D -349>	(361,1)	(2,1)	(0,1)	(245,1)	(1,0)	(1,0)	(1,0)	(1,0)	(1,0)	(1,0)	(1,0)	(1,0)	(1,0)	(1,0)	(1,0)	(1,0)	
L1D -348>	(348,8)	(351,11)	(0,7)	(6,1)	(2,11)	(-2,3)	(-3,1)	(345,1)	(346,1)	(219,2)	(-12,2)	(-11,3)	(84,1)	(1,3)	(73,3)	(-32,1)	
L1D -347>	(-3,2)	(9,5)	(1,3)	(0,12)	(343,2)	(4,1)	(304,1)	(348,3)	(340,1)	(345,1)	(2,5)	(347,2)	(346,1)	(-50,1)	(-1,1)	(-4,1)	
L1D -346>	(346,3)	(348,1)	(343,1)	(3,2)	(25,1)	(333,1)	(-2,2)	(184,1)	(1,4)	(2,1)	(-160,3)	(0,2)	(21,1)	(8,1)	(32,1)	(86,1)	
L1D -345>	(375,1)	(3,1)	(1,4)	(155,1)	(0,9)	(2,6)	(290,1)	(345,3)	(-2,7)	(317,1)	(320,1)	(480,2)	(6,2)	(184,1)	(-6,1)	(-21,1)	
L1D -344>	(344,1)	(0,5)	(3,4)	(-35,2)	(8,2)	(2,4)	(360,4)	(-1,3)	(346,2)	(136,1)	(5,1)	(-88,1)	(-40,1)	(1,1)	(65,1)	(184,1)	
L1D -343>	(0,4)	(342,1)	(1,6)	(2,8)	(-3,1)	(-2,5)	(184,1)	(480,1)	(4,1)	(-5,2)	(476,1)	(1,0)	(1,0)	(1,0)	(1,0)	(1,0)	
L1D -342>	(6,1)	(0,9)	(-9,6)	(342,2)	(343,2)	(2,5)	(-3,1)	(-2,3)	(338,2)	(390,1)	(335,1)	(-6,2)	(339,1)	(3,2)	(125,2)	(-1,1)	
L1D -341>	(341,2)	(339,2)	(-2,1)	(340,1)	(0,5)	(345,1)	(348,3)	(1,4)	(6,1)	(353,1)	(-9,2)	(-10,1)	(332,2)	(95,1)	(2,1)	(1,0)	
L1D -340>	(0,12)	(-2,11)	(340,7)	(2,8)	(338,2)	(342,1)	(-103,1)	(1,4)	(347,1)	(25,2)	(332,2)	(5,1)	(372,3)	(4,1)	(320,1)	(1,0)	
L1D -339>	(3,1)	(9,1)	(286,1)	(176,2)	(-1,2)	(-2,1)	(342,1)	(2,1)	(-6,1)	(6,1)	(0,2)	(-5,1)	(315,1)	(1,0)	(1,0)	(1,0)	
L1D -338>	(-9,2)	(0,20)	(-1,3)	(2,9)	(-10,1)	(338,2)	(1,2)	(-2,2)	(336,1)	(230,1)	(-15,1)	(339,2)	(351,1)	(434,1)	(-94,1)	(1,0)	
L1D -337>	(-2,3)	(24,2)	(-7,4)	(0,3)	(-19,1)	(1,8)	(295,1)	(1,0)	(1,0)	(1,0)	(1,0)	(1,0)	(1,0)	(1,0)	(1,0)	(1,0)	
L1D -336>	(0,11)	(40,1)	(296,6)	(-8,3)	(1,4)	(-48,6)	(-16,4)	(-2,1)	(158,1)	(337,2)	(-30,1)	(336,8)	(12,2)	(8,3)	(-6,1)	(-4,1)	
L1D -335>	(2,6)	(0,4)	(205,2)	(50,1)	(335,1)	(1,2)	(112,3)	(30,1)	(-6,1)	(327,1)	(-2,2)	(5,1)	(1,0)	(1,0)	(1,0)	(1,0)	
L1D -334>	(330,3)	(349,1)	(0,1)	(331,1)	(7,2)	(314,1)	(-3,1)	(-1,1)	(-4,1)	(1,0)	(1,0)	(1,0)	(1,0)	(1,0)	(1,0)	(1,0)	
L1D -333>	(0,5)	(-2,7)	(1,3)	(2,4)	(336,1)	(236,2)	(382,1)	(333,5)	(323,1)	(351,2)	(-22,1)	(-18,2)	(-99,2)	(316,1)	(-98,1)	(-6,1)	
L1D -332>	(0,5)	(333,2)	(5,2)	(-1,2)	(1,2)	(-2,1)	(4,2)	(332,1)	(255,1)	(2,1)	(320,1)	(240,1)	(3,1)	(215,1)	(160,1)	(316,1)	
L1D -331>	(8,1)	(0,3)	(-1,2)	(333,1)	(339,1)	(112,1)	(215,1)	(313,1)	(327,1)	(-9,1)	(331,1)	(335,1)	(195,1)	(1,0)	(1,0)	(1,0)	
L1D -330>	(1,4)	(5,1)	(0,10)	(328,1)	(-5,2)	(-2,3)	(-7,1)	(205,1)	(70,1)	(2,1)	(322,2)	(80,3)	(-1,1)	(45,1)	(1,0)	(1,0)	
L1D -329>	(0,2)	(338,1)	(329,1)	(-2,3)	(1,0)	(1,0)	(1,0)	(1,0)	(1,0)	(1,0)	(1,0)	(1,0)	(1,0)	(1,0)	(1,0)	(1,0)	
L1D -328>	(24,3)	(40,3)	(56,2)	(0,6)	(1,3)	(-2,3)	(8,4)	(2,7)	(336,1)	(92,1)	(205,1)	(329,2)	(27,1)	(6,1)	(4,1)	(-48,1)	
L1D -327>	(2,4)	(329,1)	(0,5)	(325,3)	(5,1)	(1,4)	(-6,2)	(297,1)	(1,0)	(1,0)	(1,0)	(1,0)	(1,0)	(1,0)	(1,0)	(1,0)	
L1D -326>	(1,1)	(326,3)	(4,1)	(8,1)	(-2,1)	(-20,1)	(6,1)	(1,0)	(1,0)	(1,0)	(1,0)	(1,0)	(1,0)	(1,0)	(1,0)	(1,0)	
L1D -325>	(1,7)	(-3,3)	(325,4)	(55,1)	(122,2)	(327,2)	(2,7)	(-52,2)	(7,2)	(155,1)	(0,10)	(326,1)	(-21,1)	(200,1)	(322,2)	(-2,3)	
L1D -324>	(324,5)	(316,3)	(3,2)	(405,1)	(310,1)	(256,2)	(200,2)	(0,11)	(-4,1)	(-19,2)	(89,2)	(-48,2)	(328,2)	(-6,1)	(32,1)	(4,2)	
L1D -323>	(-27,1)	(1,6)	(0,11)	(2,7)	(-1,2)	(-2,8)	(330,3)	(-20,1)	(26,1)	(27,1)	(6,1)	(-10,1)	(325,1)	(327,3)	(315,2)	(-5,1)	
L1D -322>	(8,1)	(1,1)	(0,3)	(10,4)	(100,1)	(2,1)	(6,1)	(7,1)	(-2,1)	(-1,1)	(16,1)	(342,1)	(380,1)	(1,0)	(1,0)	(1,0)	
L1D -321>	(2,2)	(5,1)	(290,1)	(0,12)	(319,2)	(-2,2)	(321,6)	(9,3)	(350,1)	(3,1)	(1,1)	(-47,1)	(320,2)	(6,1)	(1,0)	(1,0)	
L1D -320>	(3,3)	(1,8)	(8,7)	(320,3)	(-20,2)	(0,8)	(2,9)	(324,2)	(330,2)	(-2,3)	(120,1)	(-30,1)	(-16,3)	(160,3)	(6,1)	(318,1)	
L1D -319>	(112,18)	(7,1)	(31,3)	(131,1)	(34,4)	(8,2)	(163,1)	(1,4)	(0,3)	(213,1)	(-6,2)	(16,1)	(432,1)	(318,1)	(227,1)	(1,0)	
L1D -318>	(11,1)	(3,6)	(180,1)	(0,11)	(-1,2)	(-2,6)	(2,2)	(-6,2)	(325,1)	(318,1)	(-9,1)	(213,1)	(75,2)	(215,1)	(-189,1)	(18,1)	
L1D -317>	(-15,3)	(16,5)	(-1,1)	(0,3)	(-2,4)	(34,1)	(35,1)	(315,1)	(120,1)	(360,3)	(380,3)	(1,2)	(2,2)	(332,1)	(-6,1)	(-33,1)	
L1D -316>	(315,2)	(0,15)	(316,4)	(1,3)	(96,1)	(145,1)	(-2,1)	(2,4)	(3,1)	(-3,1)	(320,3)	(-12,1)	(-19,4)	(4,1)	(-1,1)	(-4,2)	
L1D -315>	(312,1)	(16,1)	(0,10)	(-2,2)	(66,1)	(120,1)	(1,5)	(2,4)	(5,1)	(140,1)	(7,1)	(315,2)	(6,1)	(405,1)	(130,1)	(-1,2)	
L1D -314>	(314,9)	(8,3)	(1,5)	(310,2)	(176,1)	(0,4)	(2,1)	(324,1)	(21,3)	(-6,1)	(-11,1)	(1,0)	(1,0)	(1,0)	(1,0)	(1,0)	
L1D -313>	(112,6)	(3,1)	(-3,2)	(-2,8)	(310,1)	(1,4)	(2,6)	(0,10)	(343,1)	(315,1)	(319,1)	(328,2)	(185,1)	(305,1)	(1,0)	(1,0)	
L1D -312>	(4,4)	(0,18)	(7,1)	(8,7)	(312,12)	(310,7)	(2,2)	(-16,1)	(-3,1)	(-2,7)	(24,1)	(-24,1)	(324,1)	(-10,1)	(1,1)	(-11,1)	
L1D -311>	(311,11)	(0,4)	(314,1)	(-4,1)	(-2,7)	(-3,2)	(330,1)	(8,1)	(1,1)	(21,3)	(2,1)	(1,0)	(1,0)	(1,0)	(1,0)	(1,0)	
L1D -310>	(-18,1)	(-2,3)	(0,16)	(308,3)	(2,5)	(310,4)	(-85,1)	(311,2)	(1,5)	(168,1)	(-4,1)	(12,1)	(298,1)	(-9,1)	(-3,1)	(312,1)	
L1D -309>	(304,1)	(309,1)	(3,7)	(-9,4)	(-10,4)	(0,4)	(-2,1)	(312,4)	(-57,1)	(-6,1)	(-23,1)	(317,2)	(2,2)	(1,0)	(1,0)	(1,0)	
L1D -308>	(0,16)	(1,6)	(2,9)	(185,1)	(-2,5)	(305,2)	(308,2)	(20,1)	(285,3)	(321,1)	(5,1)	(-95,2)	(312,3)	(369,1)	(171,1)	(320,3)	
L1D -307>	(307,10)	(-5,2)	(272,1)	(0,9)	(-9,1)	(308,3)	(305,1)	(309,1)	(2,2)	(236,1)	(329,1)	(21,3)	(1,1)	(-1,1)	(417,2)	(-2,1)	
L1D -306>	(148,1)	(-2,2)	(4,2)	(300,2)	(306,1)	(385,1)	(0,3)	(1,1)	(287,1)	(2,2)	(8,1)	(-6,2)	(200,1)	(50,1)	(288,1)	(305,1)	
L1D -305>	(0,15)	(275,1)	(250,1)	(1,9)	(205,1)	(7,1)	(209,2)	(310,3)	(305,6)	(2,8)	(303,1)	(-2,2)	(312,3)	(-9,1)	(6,1)	(-12,1)	
L1D -304>	(347,2)	(0,9)	(152,7)	(343,2)	(1,3)	(303,2)	(64,5)	(304,1)	(87,12)	(-16,1)	(344,1)	(192,1)	(-2,1)	(320,2)	(319,1)	(181,1)	
L1D -303>	(2,7)	(0,9)	(-2,4)	(1,7)	(-57,1)	(6,2)	(264,1)	(295,2)	(341,1)	(-4,1)	(233,1)	(285,1)	(307,1)	(5,1)	(-75,1)	(3,1)	
L1D -302>	(87,1)	(248,2)	(0,6)	(-2,3)	(1,3)	(301,1)	(298,1)	(-5,2)	(4,2)	(8,1)	(303,1)	(175,2)	(1,0)	(1,0)	(1,0)	(1,0)	
L1D -301>	(301,1)	(298,1)	(2,1)	(0,2)	(1,1)	(-2,1)	(8,1)	(-11,1)	(1,0)	(1,0)	(1,0)	(1,0)	(1,0)	(1,0)	(1,0)	(1,0)	
L1D -300>	(1,6)	(248,2)	(10,1)	(0,9)	(300,6)	(-125,1)	(-123,1)	(2,10)	(307,2)	(302,2)	(296,1)	(-2,14)	(223,1)	(304,2)	(152,1)	(3,2)	
L1D -299>	(298,1)	(6,1)	(58,1)	(2,1)	(-61,2)	(3,2)	(0,7)	(296,1)	(300,1)	(-1,1)	(-26,1)	(221,1)	(5,1)	(1,0)	(1,0)	(1,0)	
L1D -298>	(299,1)	(1,7)	(64,1)	(-65,1)	(0,12)	(2,9)	(-2,5)	(40,2)	(215,1)	(290,1)	(6,1)	(-6,2)	(-10,1)	(1,0)	(1,0)	(1,0)	
L1D -297>	(1,7)	(0,6)	(-9,2)	(248,1)	(286,2)	(4,2)	(9,1)	(100,1)	(298,1)	(-2,7)	(2,4)	(299,2)	(-1,1)	(6,2)	(-6,1)	(81,2)	
L1D -296>	(2,2)	(0,8)	(297,6)	(-2,7)	(-150,1)	(303,1)	(-5,1)	(-17,2)	(295,1)	(8,4)	(-78,1)	(316,2)	(4,2)	(112,1)	(300,1)	(-11,1)	
L1D -295>	(94,1)	(156,1)	(298,1)	(95,1)	(0,11)	(297,1)	(295,1)	(296,1)	(2,2)	(-70,1)	(43,1)	(-2,1)	(1,1)	(-75,1)	(-15,2)	(5,2)	
L1D -294>	(2,3)	(1,2)	(10,1)	(297,1)	(0,2)	(6,1)	(7,1)	(9,2)	(286,1)	(295,1)	(1,0)	(1,0)	(1,0)	(1,0)	(1,0)	(1,0)	
L1D -293>	(0,9)	(-2,4)	(2,5)	(345,1)	(290,1)	(10,1)	(1,4)	(-1,2)	(323,1)	(359,1)	(328,1)	(378,1)	(-76,3)	(-21,1)	(245,2)	(1,0)	
L1D -292>	(1,8)	(300,2)	(2,5)	(17,2)	(0,8)	(292,1)	(-187,1)	(293,1)	(-2,3)	(257,1)	(297,1)	(294,1)	(5,2)	(8,1)	(4,1)	(296,3)	
L1D -291>	(0,11)	(288,5)	(291,5)	(1,5)	(300,2)	(2,3)	(86,12)	(-2,2)	(87,9)	(12,2)	(32,1)	(320,2)	(45,1)	(-24,1)	(4,1)	(292,1)	
L1D -290>	(290,30)	(288,5)	(2,5)	(0,7)	(1,4)	(-2,3)	(292,1)	(-95,1)	(-115,2)	(-216,6)	(-21,1)	(320,2)	(80,1)	(-6,1)	(5,2)	(1,0)	
L1D -289>	(-1,14)	(287,17)	(318,1)	(320,2)	(288,1)	(-2,3)	(2,1)	(-5,1)	(1,3)	(-10,1)	(295,1)	(0,5)	(1,0)	(1,0)	(1,0)	(1,0)	
L1D -288>	(290,25)	(1,27)	(86,12)	(288,5)	(2,12)	(-6,8)	(64,1)	(0,33)	(87,6)	(3,6)	(360,6)	(-2,3)	(6,5)	(271,2)	(83,2)	(304,12)	
L1D -287>	(91,8)	(86,22)	(289,11)	(87,62)	(262,3)	(0,44)	(16,4)	(-1,1)	(-17,2)	(4,1)	(-16,1)	(-60,1)	(76,2)	(-2,2)	(283,2)	(255,1)	
L1D -286>	(1,3)	(0,4)	(7,1)	(-2,5)	(-6,4)	(286,1)	(42,1)	(5,1)	(294,3)	(4,1)	(283,1)	(-21,1)	(287,1)	(1,0)	(1,0)	(1,0)	
L1D -285>	(0,72)	(-3,4)	(285,3)	(260,1)	(200,1)	(-60,1)	(2,8)	(-2,6)	(190,1)	(292,1)	(287,3)	(283,2)	(-128,1)	(277,3)	(1,3)	(197,1)	
L1D -284>	(0,13)	(288,1)	(284,2)	(29,1)	(3,4)	(1,5)	(283,1)	(12,1)	(281,1)	(285,1)	(180,1)	(2,1)	(58,1)	(1,0)	(1,0)	(1,0)	
L1D -283>	(283,6)	(1,3)	(-5,1)	(280,2)	(145,2)	(0,11)	(-12,2)	(2,16)	(-2,3)	(173,1)	(298,3)	(235,2)	(5,1)	(-34,2)	(7,2)	(143,1)	
L1D -282>	(262,9)	(87,2)	(282,4)	(1,2)	(21,4)	(86,2)	(6,3)	(-13,2)	(280,3)	(9,2)	(278,2)	(-2,3)	(0,11)	(-1,1)	(284,1)	(-10,1)	
L1D -281>	(-5,1)	(177,1)	(120,2)	(1,5)	(190,1)	(248,2)	(-2,4)	(2,2)	(0,2)	(323,1)	(281,3)	(21,6)	(1,0)	(1,0)	(1,0)	(1,0)	
L1D -280>	(1,7)	(278,5)	(8,2)	(-64,10)	(3,2)	(0,18)	(280,5)	(2,6)	(210,2)	(-2,3)	(-5,1)	(290,1)	(-70,1)	(5,1)	(65,3)	(295,1)	
L1D -279>	(0,21)	(6,7)	(18,3)	(2,1)	(-1,3)	(-2,2)	(475,1)	(275,1)	(1,5)	(3,7)	(7,2)	(279,17)	(-22,1)	(4,1)	(8,2)	(62,1)	
L1D -278>	(278,8)	(233,1)	(-2,12)	(-1,3)	(1,12)	(0,12)	(273,1)	(280,2)	(2,6)	(275,1)	(193,1)	(285,7)	(-3,1)	(41,1)	(425,1)	(340,1)	
L1D -277>	(-2,3)	(0,7)	(3,2)	(275,3)	(192,1)	(2,2)	(-60,1)	(115,1)	(-35,1)	(165,1)	(125,2)	(9,1)	(-1,6)	(6,2)	(-19,1)	(4,1)	
L1D -276>	(80,35)	(87,2)	(276,7)	(-1,2)	(1,2)	(275,1)	(-53,2)	(3,7)	(-2,1)	(2,1)	(0,18)	(4,4)	(8,2)	(274,8)	(327,1)	(85,1)	
L1D -275>	(0,15)	(290,2)	(3,3)	(2,3)	(-50,1)	(-5,1)	(8,3)	(4,1)	(236,1)	(-1,3)	(243,1)	(281,1)	(22,1)	(1,3)	(275,4)	(21,3)	
L1D -274>	(78,1)	(274,2)	(2,4)	(270,1)	(-25,1)	(113,1)	(0,3)	(272,2)	(271,1)	(-232,3)	(382,1)	(-108,1)	(-1,1)	(266,1)	(7,1)	(1,0)	
L1D -273>	(53,47)	(42,2)	(-6,2)	(0,14)	(2,10)	(236,2)	(39,4)	(1,4)	(-10,5)	(-2,4)	(263,1)	(230,1)	(189,1)	(275,1)	(-8,3)	(8,2)	
L1D -272>	(0,29)	(5,1)	(-5,3)	(-66,1)	(8,8)	(407,1)	(108,2)	(236,2)	(272,6)	(-3,2)	(2,7)	(274,1)	(193,2)	(-2,1)	(1,10)	(477,1)	
L1D -271>	(-16,72)	(0,44)	(-12,2)	(5,67)	(2,16)	(1,14)	(-1,4)	(11,59)	(13,13)	(3,2)	(-21,1)	(271,16)	(6,3)	(-18,11)	(301,1)	(337,1)	
L1D -270>	(-2,2)	(1,11)	(0,79)	(270,7)	(2,5)	(-1,3)	(60,1)	(-115,1)	(271,1)	(10,3)	(297,2)	(8,3)	(4,3)	(273,1)	(199,1)	(289,1)	
L1D -269>	(1,3)	(0,32)	(-18,5)	(2,6)	(-2,3)	(271,2)	(276,4)	(-1,2)	(268,2)	(329,1)	(272,1)	(269,7)	(21,9)	(7,1)	(1,0)	(1,0)	
L1D -268>	(0,53)	(1,5)	(39,2)	(-4,1)	(268,12)	(269,1)	(-1,2)	(309,1)	(2,9)	(91,1)	(-2,4)	(133,2)	(198,1)	(-20,1)	(260,3)	(303,2)	
L1D -267>	(258,2)	(-1,1)	(0,9)	(-170,1)	(259,8)	(15,1)	(3,2)	(267,1)	(-4,1)	(6,1)	(108,1)	(-3,1)	(65,1)	(156,1)	(275,1)	(5,1)	
L1D -266>	(266,3)	(11,12)	(0,98)	(7,1)	(5,1)	(263,1)	(-5,1)	(345,55)	(-21,44)	(35,1)	(2,3)	(-25,1)	(-37,1)	(285,6)	(1,2)	(66,1)	
L1D -265>	(85,1)	(1,9)	(264,2)	(351,1)	(245,1)	(265,1)	(2,6)	(309,3)	(-4,1)	(-2,6)	(0,11)	(266,3)	(325,1)	(297,2)	(272,2)	(155,1)	
L1D -264>	(0,11)	(264,13)	(-3,2)	(1,2)	(8,7)	(273,5)	(261,3)	(260,3)	(2,4)	(256,2)	(368,2)	(-11,1)	(-4,4)	(4,1)	(257,1)	(63,1)	
L1D -263>	(260,3)	(-10,8)	(2,8)	(0,19)	(242,3)	(235,2)	(1,5)	(261,1)	(8,2)	(216,2)	(-15,2)	(238,1)	(15,6)	(297,1)	(4,2)	(36,1)	
L1D -262>	(262,9)	(264,2)	(3,2)	(-216,1)	(242,3)	(1,6)	(265,1)	(0,10)	(260,3)	(-2,2)	(2,4)	(12,2)	(175,1)	(199,1)	(137,1)	(-190,1)	
L1D -261>	(257,6)	(260,4)	(2,3)	(1,11)	(0,8)	(261,20)	(-2,2)	(-4,1)	(251,1)	(-1,3)	(263,3)	(6,9)	(248,1)	(287,1)	(-19,1)	(8,1)	
L1D -260>	(3,34)	(241,3)	(1,11)	(260,10)	(239,5)	(-11,100)	(2,54)	(33,2)	(-7,4)	(-2,6)	(126,1)	(0,38)	(30,5)	(40,5)	(-10,3)	(262,1)	
L1D -259>	(259,81)	(-1,3)	(-12,70)	(261,3)	(15,16)	(221,2)	(11,3)	(258,20)	(252,2)	(251,2)	(0,7)	(103,2)	(242,2)	(264,2)	(3,2)	(-94,1)	
L1D -258>	(6,1)	(257,4)	(0,26)	(255,2)	(4,6)	(1,8)	(254,2)	(242,2)	(-2,10)	(175,4)	(258,5)	(35,2)	(2,14)	(115,2)	(-5,4)	(-13,72)	
L1D -257>	(0,20)	(1,5)	(-1,6)	(-14,11)	(-11,35)	(274,7)	(260,8)	(21,7)	(240,2)	(263,1)	(2,3)	(114,2)	(5,1)	(258,2)	(253,3)	(257,7)	
L1D -256>	(0,27)	(1,3)	(252,10)	(56,1)	(-24,4)	(448,3)	(243,1)	(261,2)	(-1,2)	(253,1)	(88,2)	(96,3)	(8,5)	(2,2)	(-2,1)	(260,1)	
L1D -255>	(2,3)	(-1,4)	(0,34)	(15,27)	(3,5)	(-6,7)	(-35,2)	(239,2)	(-20,2)	(261,1)	(245,1)	(-90,1)	(21,1)	(-2,4)	(1,7)	(262,1)	
L1D -254>	(223,3)	(125,2)	(211,5)	(219,18)	(197,7)	(-2,3)	(8,3)	(155,2)	(193,2)	(221,2)	(257,45)	(0,17)	(250,6)	(253,52)	(-12,33)	(195,1)	
L1D -253>	(253,49)	(14,35)	(8,3)	(257,18)	(255,1)	(167,2)	(5,1)	(250,1)	(0,12)	(1,6)	(240,1)	(-2,13)	(102,1)	(2,3)	(199,1)	(219,10)	
L1D -252>	(252,31)	(0,13)	(1,3)	(164,2)	(253,2)	(-2,10)	(2,2)	(250,1)	(248,5)	(5,1)	(235,1)	(208,2)	(243,1)	(-16,1)	(8,4)	(-19,1)	
L1D -251>	(6,1)	(0,7)	(253,1)	(240,2)	(130,1)	(255,1)	(252,1)	(-2,9)	(254,1)	(258,5)	(15,27)	(2,2)	(-1,3)	(1,1)	(52,1)	(1,0)	
L1D -250>	(1,10)	(257,2)	(260,1)	(252,3)	(0,13)	(2,6)	(-2,7)	(-88,1)	(-80,1)	(250,2)	(246,3)	(258,3)	(-256,3)	(-7,2)	(254,1)	(-144,3)	
L1D -249>	(249,1)	(248,1)	(245,1)	(3,1)	(-70,1)	(258,2)	(1,4)	(-27,2)	(300,1)	(285,1)	(203,1)	(286,1)	(6,1)	(241,1)	(251,1)	(173,1)	
L1D -248>	(244,7)	(8,4)	(147,1)	(-128,10)	(250,3)	(1,3)	(2,15)	(252,1)	(0,11)	(-2,1)	(40,1)	(251,1)	(27,1)	(182,1)	(270,1)	(248,1)	
L1D -247>	(247,99)	(-33,1)	(0,3)	(-2,5)	(-1,6)	(260,1)	(250,1)	(40,1)	(-9,2)	(2,2)	(1,3)	(-3,1)	(221,1)	(8,10)	(234,1)	(251,2)	
L1D -246>	(-2,2)	(2,1)	(0,4)	(243,4)	(264,1)	(225,1)	(63,3)	(-8,1)	(285,2)	(-11,1)	(86,1)	(-75,1)	(240,2)	(-6,1)	(10,1)	(-10,1)	
L1D -245>	(-60,2)	(24,2)	(1,4)	(247,2)	(2,7)	(248,2)	(0,8)	(241,2)	(-1,3)	(31,2)	(260,2)	(200,1)	(-4,1)	(-3,1)	(-2,9)	(-10,3)	
L1D -244>	(0,8)	(8,2)	(-8,4)	(2,2)	(160,1)	(1,1)	(249,1)	(-35,1)	(-13,1)	(248,1)	(229,1)	(63,1)	(-106,1)	(240,2)	(13,1)	(5,1)	
L1D -243>	(15,3)	(-9,2)	(1,3)	(-63,1)	(248,2)	(9,3)	(2,10)	(0,14)	(360,2)	(-2,6)	(7,1)	(-1,9)	(179,9)	(282,1)	(273,1)	(196,1)	
L1D -242>	(0,17)	(23,3)	(-60,3)	(185,7)	(249,11)	(216,2)	(179,8)	(-264,2)	(-1,2)	(129,1)	(245,3)	(243,2)	(240,1)	(246,1)	(160,1)	(2,6)	
L1D -241>	(11,4)	(185,4)	(244,1)	(160,1)	(0,6)	(2,7)	(240,4)	(245,3)	(258,1)	(-6,3)	(12,1)	(-11,2)	(1,3)	(261,1)	(256,1)	(75,1)	
L1D -240>	(200,13)	(240,12)	(-11,2)	(196,13)	(1,27)	(-13,4)	(0,10)	(244,3)	(237,5)	(198,3)	(8,4)	(242,2)	(-85,1)	(-124,1)	(-2,5)	(2,6)	
L1D -239>	(200,6)	(196,9)	(239,7)	(-6,2)	(2,4)	(0,8)	(1,5)	(238,4)	(15,2)	(-2,2)	(254,2)	(219,2)	(12,1)	(240,1)	(242,1)	(-16,4)	
L1D -238>	(-13,5)	(1,4)	(172,28)	(222,2)	(63,2)	(2,2)	(0,3)	(-2,5)	(233,1)	(230,2)	(238,3)	(150,1)	(227,1)	(-50,3)	(239,3)	(28,2)	
L1D -237>	(28,2)	(179,57)	(237,10)	(0,12)	(3,7)	(172,14)	(247,5)	(2,9)	(21,4)	(-2,3)	(258,3)	(248,2)	(233,2)	(243,2)	(288,1)	(280,1)	
L1D -236>	(236,5)	(1,7)	(185,45)	(179,36)	(0,10)	(-25,2)	(3,3)	(251,2)	(239,3)	(-2,3)	(240,3)	(36,2)	(-27,3)	(4,2)	(-1,1)	(28,2)	
L1D -235>	(-4,4)	(235,12)	(-2,12)	(28,2)	(15,2)	(237,5)	(21,6)	(3,2)	(185,28)	(179,1)	(2,15)	(50,1)	(0,12)	(1,11)	(234,2)	(25,1)	
L1D -234>	(196,48)	(200,73)	(1,6)	(182,2)	(91,2)	(0,11)	(231,4)	(186,3)	(-2,2)	(2,1)	(-272,3)	(-3,2)	(230,3)	(3,3)	(28,2)	(198,1)	
L1D -233>	(200,57)	(0,15)	(196,43)	(201,8)	(1,6)	(235,2)	(-1,2)	(236,3)	(4,4)	(-2,7)	(5,2)	(6,1)	(135,2)	(2,8)	(278,1)	(280,1)	
L1D -232>	(240,2)	(0,27)	(-13,1)	(200,6)	(201,10)	(-54,1)	(99,14)	(232,14)	(-120,7)	(128,2)	(1,8)	(3,1)	(2,7)	(233,4)	(228,5)	(-2,3)	
L1D -231>	(99,3)	(15,3)	(214,8)	(-72,1)	(0,10)	(1,7)	(-2,1)	(230,3)	(227,1)	(-4,1)	(155,1)	(-3,1)	(223,3)	(260,1)	(236,1)	(6,4)	
L1D -230>	(4,15)	(445,2)	(230,3)	(1,13)	(232,4)	(0,24)	(2,12)	(233,5)	(229,2)	(-2,3)	(-20,1)	(228,3)	(234,2)	(55,3)	(54,1)	(-95,1)	
L1D -229>	(-4,23)	(229,33)	(0,19)	(1,4)	(-2,1)	(234,2)	(232,1)	(-1,1)	(-5,2)	(54,2)	(-25,1)	(233,2)	(6,1)	(8,4)	(2,2)	(1,0)	
L1D -228>	(1,7)	(12,118)	(-4,2)	(228,4)	(-3,1)	(217,1)	(4,3)	(240,2)	(0,9)	(220,1)	(2,2)	(-2,2)	(212,1)	(-1,1)	(-198,1)	(243,1)	
L1D -227>	(1,5)	(15,3)	(227,3)	(0,12)	(264,2)	(230,3)	(233,2)	(5,2)	(-1,2)	(2,4)	(3,1)	(195,1)	(210,1)	(4,1)	(165,1)	(207,1)	
L1D -226>	(25,13)	(0,43)	(-69,9)	(2,5)	(1,9)	(231,2)	(230,3)	(-60,2)	(-62,35)	(-56,1)	(390,1)	(222,2)	(90,2)	(244,1)	(4,1)	(-280,3)	
L1D -225>	(5,6)	(7,4)	(-141,2)	(225,3)	(215,2)	(-69,4)	(172,8)	(0,17)	(-6,2)	(144,2)	(-20,1)	(3,3)	(227,1)	(2,16)	(212,1)	(1,11)	
L1D -224>	(224,77)	(0,18)	(-10,4)	(9,2)	(231,2)	(1,3)	(8,1)	(226,2)	(160,3)	(4,3)	(355,2)	(227,2)	(2,3)	(6,3)	(220,3)	(305,1)	
L1D -223>	(15,2)	(7,2)	(1,2)	(2,12)	(-11,2)	(220,3)	(223,5)	(75,1)	(0,12)	(-2,7)	(-1,1)	(4,7)	(221,2)	(208,3)	(217,1)	(225,1)	
L1D -222>	(193,31)	(-3,1)	(218,3)	(172,57)	(224,1)	(0,10)	(2,10)	(220,5)	(136,1)	(-2,4)	(1,11)	(223,4)	(15,1)	(390,1)	(160,3)	(6,4)	
L1D -221>	(1,10)	(221,121)	(0,70)	(172,8)	(196,4)	(3,6)	(5,10)	(2,3)	(379,3)	(-2,4)	(6,7)	(-10,4)	(220,7)	(213,2)	(36,2)	(228,1)	
L1D -220>	(201,6)	(220,16)	(-1,3)	(2,20)	(-2,5)	(-64,1)	(-5,3)	(185,2)	(1,8)	(0,57)	(3,2)	(-4,3)	(217,2)	(216,4)	(4,123)	(218,2)	
L1D -219>	(193,62)	(217,7)	(15,5)	(0,6)	(1,3)	(172,10)	(3,10)	(220,1)	(222,2)	(223,1)	(394,1)	(-2,2)	(219,1)	(212,4)	(81,2)	(4,1)	
L1D -218>	(0,70)	(218,111)	(-3,4)	(172,30)	(-1,2)	(3,12)	(-12,1)	(-2,14)	(196,14)	(1,6)	(-5,1)	(2,16)	(215,1)	(223,2)	(10,3)	(222,3)	
L1D -217>	(219,20)	(217,25)	(216,2)	(1,16)	(5,3)	(0,24)	(364,2)	(218,2)	(7,5)	(204,16)	(201,62)	(419,1)	(2,6)	(214,2)	(215,1)	(-2,9)	
L1D -216>	(216,66)	(0,16)	(2,4)	(1,4)	(32,1)	(92,1)	(219,2)	(218,1)	(17,1)	(-40,3)	(212,2)	(-243,1)	(-151,1)	(24,2)	(8,3)	(197,1)	
L1D -215>	(215,84)	(-6,33)	(1,1)	(-3,9)	(0,34)	(-9,1)	(2,14)	(199,0)	(-2,0)	(15,2)	(-118,1)	(-35,1)	(222,1)	(4,0)	(213,0)	(217,0)	
L1D -214>	(-11,39)	(0,4)	(214,18)	(215,10)	(1,5)	(-7,2)	(11,2)	(200,2)	(196,12)	(3,3)	(-16,1)	(124,3)	(211,2)	(210,2)	(2,1)	(8,1)	
L1D -213>	(213,36)	(0,19)	(-1,11)	(200,37)	(201,9)	(3,3)	(215,3)	(2,13)	(-8,12)	(216,3)	(-2,7)	(8,2)	(9,1)	(1,9)	(88,2)	(195,2)	
L1D -212>	(-19,12)	(0,23)	(212,99)	(181,9)	(-4,8)	(-44,2)	(-88,4)	(216,3)	(211,2)	(2,7)	(12,3)	(219,2)	(276,1)	(65,1)	(217,2)	(68,2)	
L1D -211>	(214,10)	(215,12)	(-13,3)	(218,4)	(2,5)	(32,1)	(1,3)	(209,7)	(15,4)	(0,8)	(230,2)	(208,2)	(3,2)	(-76,2)	(-127,2)	(235,3)	
L1D -210>	(0,19)	(-6,2)	(-245,2)	(3,2)	(-36,5)	(212,4)	(-2,7)	(189,1)	(213,3)	(1,10)	(214,1)	(2,6)	(210,2)	(85,1)	(208,2)	(286,1)	
L1D -209>	(209,51)	(-12,5)	(0,6)	(172,28)	(2,4)	(208,2)	(201,2)	(210,1)	(214,2)	(54,1)	(64,2)	(8,1)	(213,2)	(1,6)	(3,3)	(-24,1)	
L1D -208>	(-12,75)	(-3,4)	(0,69)	(130,3)	(179,27)	(-48,10)	(208,11)	(216,1)	(-16,1)	(1,19)	(220,3)	(2,10)	(-2,6)	(-1,1)	(65,9)	(7,1)	
L1D -207>	(185,9)	(0,67)	(207,82)	(-14,4)	(209,2)	(175,2)	(15,3)	(220,1)	(205,5)	(-60,1)	(-123,1)	(210,3)	(1,9)	(2,11)	(211,1)	(-2,2)	
L1D -206>	(239,1)	(172,108)	(-9,2)	(0,21)	(-25,2)	(213,2)	(195,1)	(211,2)	(2,4)	(210,2)	(1,3)	(-32,1)	(229,1)	(207,2)	(130,1)	(65,1)	
L1D -205>	(196,32)	(205,7)	(0,11)	(-3,1)	(179,83)	(-2,2)	(62,1)	(35,1)	(2,3)	(-9,2)	(1,3)	(-20,1)	(27,0)	(202,0)	(203,1)	(-1,1)	
L1D -204>	(0,54)	(204,52)	(201,88)	(182,21)	(185,31)	(-28,10)	(12,6)	(200,13)	(202,9)	(65,1)	(178,3)	(1,8)	(181,6)	(179,78)	(205,4)	(31,2)	
L1D -203>	(185,9)	(1,8)	(0,15)	(205,2)	(2,10)	(6,2)	(208,3)	(-5,4)	(179,5)	(202,4)	(195,2)	(-2,7)	(212,2)	(15,3)	(206,1)	(155,2)	
L1D -202>	(196,110)	(198,1)	(2,5)	(200,4)	(0,6)	(215,1)	(-1,1)	(204,3)	(-2,1)	(202,1)	(1,2)	(203,1)	(40,0)	(-6,0)	(201,1)	(217,0)	
L1D -201>	(201,103)	(6,2)	(11,2)	(-6,1)	(202,1)	(204,67)	(85,3)	(-4,1)	(3,2)	(0,1)	(-1,1)	(196,12)	(1,2)	(200,119)	(-2,1)	(198,1)	
L1D -200>	(0,22)	(200,79)	(182,3)	(234,2)	(5,2)	(-57,1)	(201,5)	(195,2)	(2,6)	(233,1)	(208,2)	(1,4)	(197,7)	(4,3)	(172,20)	(8,2)	
L1D -199>	(199,35)	(7,12)	(-88,6)	(215,101)	(95,5)	(-1,7)	(179,72)	(0,8)	(196,2)	(1,2)	(2,4)	(10,2)	(201,1)	(3,5)	(-90,21)	(218,4)	
L1D -198>	(0,22)	(181,64)	(3,9)	(214,2)	(195,2)	(185,3)	(1,14)	(196,3)	(179,13)	(183,2)	(2,13)	(198,6)	(201,4)	(8,1)	(5,2)	(-2,14)	
L1D -197>	(195,33)	(0,10)	(196,9)	(1,7)	(201,4)	(-1,3)	(190,1)	(189,1)	(2,8)	(202,2)	(198,2)	(-98,1)	(-2,2)	(10,1)	(5,1)	(170,1)	
L1D -196>	(196,127)	(198,11)	(202,56)	(0,30)	(229,6)	(-4,3)	(1,28)	(228,3)	(200,4)	(2,7)	(172,12)	(195,24)	(160,2)	(-2,2)	(48,1)	(268,1)	
L1D -195>	(201,105)	(229,18)	(235,2)	(0,0)	(325,1)	(228,10)	(195,0)	(-91,1)	(234,1)	(4,0)	(2,0)	(-10,0)	(6,0)	(3,0)	(1,0)	(200,6)	
L1D -194>	(43,2)	(-6,11)	(-2,7)	(185,2)	(212,5)	(0,9)	(2,7)	(201,2)	(-9,2)	(1,5)	(190,5)	(8,1)	(199,1)	(-1,3)	(16,1)	(192,1)	
L1D -193>	(218,2)	(189,1)	(215,27)	(-1,2)	(1,7)	(2,15)	(3,1)	(-7,2)	(0,15)	(-2,14)	(8,1)	(192,2)	(70,1)	(5,3)	(-30,1)	(195,6)	
L1D -192>	(-7,3)	(196,9)	(0,22)	(192,4)	(229,45)	(228,28)	(234,4)	(235,7)	(-48,14)	(193,5)	(-1,1)	(1,10)	(-2,10)	(-3,7)	(10,4)	(2,2)	
L1D -191>	(229,16)	(228,4)	(195,2)	(0,6)	(-8,5)	(1,8)	(2,1)	(-279,1)	(12,1)	(8,1)	(180,2)	(10,1)	(-1,5)	(31,1)	(190,1)	(192,1)	
L1D -190>	(212,12)	(-2,8)	(-1,2)	(190,7)	(20,1)	(15,9)	(1,13)	(0,12)	(185,1)	(187,2)	(2,17)	(115,1)	(192,2)	(90,1)	(45,1)	(213,1)	
L1D -189>	(46,6)	(218,16)	(215,31)	(-1,4)	(189,8)	(237,3)	(1,2)	(0,4)	(-2,4)	(185,2)	(40,1)	(193,1)	(2,2)	(186,1)	(192,1)	(3,4)	
L1D -188>	(-18,3)	(188,2)	(11,2)	(0,46)	(185,4)	(1,8)	(2,9)	(195,2)	(190,2)	(-2,13)	(8,1)	(88,1)	(-3,1)	(300,1)	(5,3)	(120,2)	
L1D -187>	(-25,33)	(195,3)	(2,8)	(7,3)	(190,1)	(187,4)	(1,3)	(188,2)	(0,14)	(185,4)	(189,2)	(183,1)	(-125,1)	(196,1)	(-2,9)	(-3,2)	
L1D -186>	(103,1)	(2,1)	(0,0)	(107,89)	(84,0)	(88,3)	(166,3)	(167,18)	(106,3)	(195,0)	(186,0)	(-320,0)	(182,0)	(-32,0)	(178,0)	(199,0)	
L1D -185>	(2,112)	(178,9)	(3,96)	(204,7)	(191,3)	(5,20)	(4,10)	(198,4)	(207,3)	(185,7)	(0,19)	(1,10)	(-2,8)	(222,4)	(11,34)	(170,1)	
L1D -184>	(6,2)	(1,6)	(-24,5)	(-48,1)	(185,5)	(3,1)	(295,1)	(188,1)	(-2,2)	(0,10)	(180,1)	(184,18)	(-30,1)	(186,1)	(225,1)	(2,7)	
L1D -183>	(196,10)	(-62,38)	(220,5)	(183,28)	(200,2)	(175,2)	(2,13)	(0,12)	(12,1)	(375,1)	(182,3)	(-2,19)	(-25,3)	(181,1)	(185,7)	(-93,16)	
L1D -182>	(201,19)	(200,92)	(-18,9)	(2,7)	(-6,5)	(1,11)	(-2,7)	(-1,3)	(-9,2)	(109,1)	(52,7)	(26,7)	(-3,16)	(3,1)	(0,16)	(180,2)	
L1D -181>	(212,4)	(10,1)	(209,2)	(183,1)	(284,1)	(202,1)	(0,6)	(2,1)	(190,3)	(12,1)	(1,5)	(32,1)	(-32,1)	(247,1)	(187,2)	(4,1)	
L1D -180>	(108,0)	(0,58)	(9,0)	(5,2)	(180,71)	(2,0)	(3,0)	(129,1)	(181,0)	(4,0)	(12,0)	(161,0)	(208,0)	(284,0)	(1,9)	(1,0)	
L1D -179>	(196,56)	(179,73)	(181,17)	(-1,17)	(1,1)	(-9,3)	(164,11)	(198,13)	(52,0)	(-232,1)	(175,1)	(207,2)	(-3,4)	(0,7)	(-2,1)	(91,2)	
L1D -178>	(178,8)	(191,10)	(196,13)	(185,2)	(179,6)	(0,26)	(-328,2)	(-5,2)	(9,6)	(30,2)	(175,2)	(1,9)	(2,15)	(-2,12)	(8,1)	(182,1)	
L1D -177>	(201,15)	(200,16)	(204,3)	(2,11)	(1,9)	(197,2)	(0,9)	(175,4)	(-5,5)	(177,1)	(-3,1)	(405,1)	(-53,1)	(169,1)	(148,2)	(-189,1)	
L1D -176>	(196,117)	(48,1)	(200,14)	(-6,1)	(-29,1)	(198,1)	(172,1)	(8,3)	(95,1)	(0,5)	(-24,1)	(224,1)	(192,1)	(248,2)	(-8,1)	(-121,1)	
L1D -175>	(200,94)	(215,5)	(-25,2)	(1,20)	(2,12)	(0,17)	(202,2)	(173,2)	(6,1)	(170,1)	(-100,1)	(-2,2)	(330,1)	(175,3)	(230,1)	(201,53)	
L1D -174>	(-10,31)	(191,9)	(-39,2)	(212,22)	(1,15)	(170,3)	(193,2)	(173,7)	(2,1)	(-54,2)	(243,1)	(145,1)	(204,1)	(0,10)	(148,3)	(139,7)	
L1D -173>	(-39,5)	(215,31)	(172,4)	(0,16)	(218,6)	(2,22)	(214,2)	(-10,12)	(-2,18)	(3,2)	(4,3)	(1,6)	(-168,1)	(10,1)	(161,1)	(-170,1)	
L1D -172>	(-39,19)	(0,28)	(1,20)	(172,80)	(200,7)	(171,6)	(-48,8)	(-12,3)	(173,4)	(3,1)	(2,1)	(176,2)	(91,1)	(-2,2)	(130,1)	(-5,2)	
L1D -171>	(0,4)	(91,1)	(306,4)	(328,1)	(-2,4)	(2,7)	(255,3)	(18,1)	(179,96)	(-14,1)	(169,1)	(9,1)	(-29,1)	(130,2)	(-1,1)	(-5,1)	
L1D -170>	(0,33)	(139,6)	(53,2)	(1,9)	(175,2)	(4,1)	(217,1)	(2,11)	(30,1)	(40,1)	(424,1)	(170,4)	(-2,13)	(285,1)	(-90,1)	(130,1)	
L1D -169>	(315,12)	(0,5)	(4,2)	(-9,6)	(170,2)	(-325,3)	(393,2)	(39,2)	(8,2)	(19,10)	(13,22)	(1,2)	(161,2)	(-13,6)	(230,1)	(169,7)	
L1D -168>	(167,1)	(-296,4)	(32,14)	(8,12)	(168,10)	(0,15)	(10,2)	(2,26)	(-84,2)	(-287,3)	(66,2)	(1,6)	(-1,2)	(-2,5)	(170,4)	(144,3)	
L1D -167>	(-39,76)	(3,3)	(4,5)	(201,94)	(202,6)	(1,10)	(0,13)	(8,4)	(-29,4)	(2,4)	(-2,4)	(7,1)	(77,1)	(165,3)	(-5,1)	(-30,1)	
L1D -166>	(10,3)	(0,12)	(212,52)	(213,8)	(-75,3)	(39,2)	(-55,2)	(-1,2)	(166,2)	(2,4)	(-140,1)	(164,26)	(162,1)	(1,5)	(236,1)	(172,1)	
L1D -165>	(165,63)	(-56,2)	(167,4)	(0,25)	(215,59)	(218,12)	(2,41)	(-2,8)	(1,7)	(149,1)	(125,2)	(185,1)	(163,2)	(34,1)	(38,1)	(5,1)	
L1D -164>	(10,5)	(164,23)	(66,3)	(180,1)	(-46,1)	(200,1)	(284,1)	(-20,4)	(0,6)	(24,1)	(4,2)	(2,1)	(232,1)	(11,1)	(167,1)	(1,5)	
L1D -163>	(163,113)	(7,1)	(160,1)	(-52,1)	(0,39)	(2,3)	(-2,2)	(170,1)	(323,0)	(305,1)	(-58,3)	(-61,5)	(147,1)	(-54,1)	(-11,2)	(-6,0)	
L1D -162>	(-24,9)	(1,6)	(6,6)	(-11,2)	(0,7)	(162,34)	(2,16)	(153,1)	(255,1)	(5,4)	(-2,4)	(160,2)	(122,1)	(158,1)	(163,1)	(50,1)	
L1D -161>	(-39,74)	(3,18)	(24,2)	(0,6)	(232,2)	(4,2)	(1,10)	(168,2)	(14,1)	(-2,7)	(162,1)	(161,68)	(-60,3)	(-1,1)	(159,3)	(181,1)	
L1D -160>	(1,8)	(22,6)	(160,37)	(-13,1)	(159,2)	(-8,2)	(152,2)	(168,4)	(0,23)	(-96,9)	(-20,3)	(232,3)	(144,8)	(88,3)	(-312,4)	(-1,3)	
L1D -159>	(158,3)	(54,2)	(8,2)	(155,2)	(1,7)	(-1,3)	(239,2)	(0,5)	(160,1)	(151,5)	(3,3)	(255,1)	(159,5)	(66,1)	(153,1)	(21,1)	
L1D -158>	(158,3)	(139,6)	(-2,26)	(0,15)	(35,3)	(-124,2)	(146,5)	(2,17)	(273,2)	(1,4)	(-1,3)	(-29,5)	(168,2)	(8,1)	(50,1)	(195,1)	
L1D -157>	(2,6)	(1,6)	(-1,2)	(155,2)	(18,1)	(0,8)	(158,3)	(157,1)	(20,1)	(200,1)	(70,1)	(5,1)	(129,7)	(109,5)	(130,1)	(128,1)	
L1D -156>	(8,2)	(148,22)	(-5,1)	(-24,1)	(3,10)	(200,2)	(68,1)	(0,24)	(-101,3)	(-10,5)	(-182,15)	(4,3)	(2,5)	(1,5)	(156,1)	(250,1)	
L1D -155>	(156,16)	(155,7)	(66,4)	(0,30)	(10,1)	(1,11)	(2,8)	(165,1)	(167,1)	(-43,1)	(-2,12)	(27,1)	(346,1)	(157,2)	(4,2)	(148,1)	
L1D -154>	(-39,13)	(-6,2)	(155,2)	(0,11)	(1,2)	(75,3)	(154,2)	(211,1)	(215,1)	(29,1)	(5,1)	(150,2)	(-133,2)	(-12,1)	(-2,3)	(7,1)	
L1D -153>	(1,11)	(0,20)	(-3,2)	(155,1)	(2,17)	(150,4)	(143,4)	(238,1)	(152,1)	(-2,7)	(28,2)	(54,2)	(9,1)	(168,1)	(-81,1)	(-9,1)	
L1D -152>	(0,10)	(-2,4)	(152,88)	(-141,3)	(1,7)	(151,18)	(8,4)	(-20,6)	(120,39)	(2,4)	(150,2)	(-13,1)	(16,4)	(9,2)	(368,2)	(12,1)	
L1D -151>	(0,8)	(1,5)	(149,2)	(3,2)	(-1,3)	(-5,2)	(-2,5)	(152,38)	(-11,15)	(155,1)	(151,2)	(-103,1)	(12,1)	(2,1)	(-10,1)	(-321,1)	
L1D -150>	(1,17)	(-19,27)	(0,22)	(150,11)	(142,4)	(-3,1)	(425,1)	(-300,1)	(2,16)	(152,5)	(148,1)	(105,1)	(-2,7)	(107,2)	(327,1)	(-15,1)	
L1D -149>	(199,1)	(159,2)	(0,6)	(10,1)	(-1,3)	(8,2)	(-2,4)	(151,2)	(1,1)	(147,1)	(16,1)	(7,1)	(149,6)	(154,2)	(164,1)	(-40,1)	
L1D -148>	(0,33)	(-4,4)	(1,14)	(4,4)	(148,5)	(20,1)	(196,3)	(-12,1)	(3,1)	(-3,2)	(2,19)	(150,1)	(50,1)	(147,1)	(-16,2)	(-2,3)	
L1D -147>	(-7,8)	(-31,4)	(0,9)	(3,7)	(-1,2)	(-2,6)	(2,6)	(1,10)	(149,2)	(-9,2)	(15,2)	(132,1)	(-12,1)	(5,1)	(-3,2)	(215,1)	
L1D -146>	(-169,9)	(1,4)	(158,6)	(147,4)	(173,4)	(2,20)	(-2,2)	(161,2)	(66,4)	(0,65)	(4,3)	(174,13)	(148,1)	(-221,10)	(152,16)	(170,11)	
L1D -145>	(0,30)	(-15,3)	(1,14)	(-60,2)	(147,6)	(88,3)	(-2,16)	(2,10)	(10,1)	(145,4)	(5,2)	(-40,4)	(-38,1)	(143,1)	(-5,2)	(205,1)	
L1D -144>	(0,92)	(27,22)	(144,48)	(168,2)	(12,13)	(-8,2)	(9,2)	(4,4)	(145,1)	(136,4)	(3,3)	(-2,2)	(8,1)	(92,1)	(-32,2)	(114,1)	
L1D -143>	(-39,4)	(0,22)	(10,3)	(-10,6)	(25,2)	(-55,3)	(1,11)	(-9,4)	(2,20)	(-1,1)	(-2,20)	(140,1)	(-107,1)	(310,1)	(-25,3)	(-105,1)	
L1D -142>	(-11,2)	(0,73)	(93,5)	(142,18)	(-34,2)	(48,2)	(2,6)	(12,16)	(92,2)	(143,4)	(-2,7)	(140,5)	(144,3)	(330,3)	(5,1)	(138,1)	
L1D -141>	(1,5)	(-1,6)	(0,9)	(141,2)	(-2,3)	(140,2)	(145,2)	(6,4)	(133,2)	(25,3)	(9,2)	(3,2)	(2,4)	(10,1)	(-76,4)	(-160,1)	
L1D -140>	(0,33)	(140,21)	(16,3)	(1,16)	(2,29)	(4,3)	(-140,9)	(5,4)	(142,7)	(-2,12)	(10,2)	(20,1)	(128,2)	(-3,1)	(145,1)	(3,7)	
L1D -139>	(0,27)	(7,13)	(142,2)	(138,5)	(12,17)	(2,3)	(1,3)	(-1,15)	(141,1)	(4,3)	(-100,1)	(147,1)	(209,1)	(5,2)	(139,3)	(146,43)	
L1D -138>	(0,14)	(1,10)	(86,2)	(-2,10)	(2,19)	(140,5)	(4,2)	(8,1)	(132,1)	(28,1)	(30,1)	(45,1)	(10,2)	(-368,5)	(156,2)	(-36,1)	
L1D -137>	(1,7)	(3,3)	(136,2)	(0,13)	(134,1)	(2,6)	(-98,1)	(110,1)	(-2,9)	(135,2)	(139,1)	(-32,1)	(202,1)	(-325,1)	(44,1)	(71,1)	
L1D -136>	(1,10)	(138,2)	(140,2)	(134,1)	(3,3)	(40,1)	(0,9)	(4,2)	(136,1)	(-196,1)	(-2,2)	(8,4)	(164,3)	(196,1)	(-1,3)	(88,1)	
L1D -135>	(120,3)	(-9,2)	(2,12)	(-5,2)	(170,1)	(-36,6)	(-8,1)	(25,1)	(137,3)	(0,23)	(1,9)	(66,1)	(135,4)	(307,2)	(-2,5)	(18,2)	
L1D -134>	(4,3)	(134,2)	(3,1)	(48,2)	(0,8)	(-18,2)	(126,1)	(-1,2)	(-6,1)	(1,12)	(141,6)	(135,2)	(172,1)	(2,1)	(128,1)	(152,1)	
L1D -133>	(-90,26)	(0,24)	(2,13)	(132,3)	(13,2)	(-2,8)	(38,2)	(-88,5)	(95,2)	(-100,3)	(1,12)	(4,4)	(283,2)	(106,3)	(-125,1)	(3,13)	
L1D -132>	(0,21)	(-132,4)	(120,2)	(2,3)	(-4,2)	(6,2)	(-80,1)	(1,10)	(132,8)	(-8,2)	(8,2)	(3,1)	(131,2)	(128,1)	(84,3)	(32,1)	
L1D -131>	(7,3)	(-9,2)	(0,15)	(1,4)	(31,2)	(316,2)	(132,1)	(2,3)	(-2,4)	(-1,3)	(138,1)	(221,1)	(147,8)	(128,1)	(129,4)	(111,1)	
L1D -130>	(128,43)	(132,4)	(5,4)	(-75,2)	(127,2)	(131,6)	(-2,17)	(-10,4)	(1,12)	(2,10)	(30,1)	(0,28)	(270,1)	(180,1)	(130,13)	(32,1)	
L1D -129>	(0,25)	(79,1)	(129,15)	(126,4)	(6,1)	(2,3)	(125,2)	(32,4)	(-2,4)	(1,13)	(27,2)	(-12,2)	(9,3)	(-6,1)	(8,2)	(3,4)	
L1D -128>	(1,15)	(0,38)	(-6,6)	(-13,1)	(-1,3)	(8,17)	(-40,4)	(2,30)	(-8,5)	(-4,3)	(130,3)	(-2,9)	(76,3)	(392,3)	(96,2)	(133,2)	
L1D -127>	(0,32)	(7,16)	(127,8)	(2,4)	(1,8)	(-1,7)	(159,2)	(-2,10)	(87,3)	(-9,2)	(8,3)	(123,1)	(115,4)	(128,1)	(373,1)	(125,4)	
L1D -126>	(111,2)	(17,2)	(0,21)	(126,6)	(-26,3)	(2,4)	(113,2)	(123,5)	(9,7)	(-2,5)	(-1,6)	(3,4)	(125,2)	(72,2)	(8,1)	(-6,3)	
L1D -125>	(125,33)	(0,43)	(124,2)	(132,3)	(135,48)	(131,3)	(142,14)	(93,2)	(148,2)	(1,11)	(2,26)	(127,5)	(123,2)	(27,2)	(140,2)	(-13,1)	
L1D -124>	(0,19)	(124,11)	(125,10)	(126,2)	(-1,3)	(121,2)	(16,2)	(128,1)	(-4,3)	(100,1)	(3,1)	(-2,1)	(-88,2)	(1,47)	(4,6)	(2,104)	
L1D -123>	(1,15)	(0,20)	(123,5)	(126,2)	(-1,2)	(-31,9)	(39,3)	(121,2)	(2,23)	(330,2)	(-2,10)	(125,2)	(6,2)	(120,4)	(5,3)	(12,1)	
L1D -122>	(121,16)	(0,17)	(2,17)	(12,30)	(182,2)	(119,3)	(33,1)	(1,5)	(-218,1)	(100,2)	(123,2)	(-55,1)	(-5,1)	(-2,5)	(120,2)	(4,2)	
L1D -121>	(195,2)	(119,1)	(121,4)	(1,6)	(78,2)	(130,1)	(180,1)	(0,16)	(2,46)	(-2,1)	(-4,1)	(4,12)	(14,4)	(-172,1)	(124,1)	(-31,3)	
L1D -120>	(2,24)	(0,64)	(7,3)	(-2,3)	(8,6)	(120,20)	(88,8)	(-24,3)	(146,1)	(4,3)	(3,13)	(135,5)	(6,8)	(-20,5)	(48,6)	(1,20)	
L1D -119>	(7,3)	(14,5)	(2,6)	(0,10)	(-11,2)	(120,4)	(118,3)	(-5,1)	(76,3)	(115,1)	(-158,1)	(240,1)	(8,3)	(-6,15)	(78,2)	(12,15)	
L1D -118>	(82,3)	(13,4)	(1,8)	(17,3)	(0,21)	(34,2)	(111,2)	(118,5)	(2,15)	(7,8)	(72,2)	(-12,1)	(28,2)	(68,2)	(190,2)	(-2,20)	
L1D -117>	(116,4)	(0,32)	(-53,16)	(117,39)	(-27,50)	(2,13)	(123,2)	(6,4)	(-2,8)	(5,2)	(1,6)	(115,6)	(-1,2)	(-35,3)	(113,2)	(-6,2)	
L1D -116>	(-27,33)	(-8,2)	(13,8)	(35,2)	(-2,4)	(0,26)	(119,2)	(2,3)	(-4,6)	(3,3)	(1,5)	(117,1)	(-1,3)	(-108,1)	(4,3)	(277,1)	
L1D -115>	(13,84)	(0,39)	(-27,45)	(18,8)	(115,14)	(-2,18)	(116,5)	(31,8)	(2,7)	(19,12)	(15,5)	(-12,2)	(265,2)	(10,1)	(1,15)	(3,1)	
L1D -114>	(106,7)	(1,5)	(14,2)	(2,8)	(-6,4)	(108,2)	(8,2)	(0,17)	(114,2)	(4,1)	(144,1)	(-2,2)	(110,1)	(119,1)	(238,1)	(96,4)	
L1D -113>	(113,5)	(126,3)	(0,31)	(1,22)	(112,8)	(101,4)	(51,2)	(203,4)	(110,2)	(114,1)	(9,16)	(-26,1)	(2,26)	(-2,13)	(115,7)	(-1,2)	
L1D -112>	(3,4)	(4,2)	(0,27)	(-13,2)	(1,6)	(112,5)	(109,4)	(8,3)	(-2,20)	(2,9)	(114,2)	(23,3)	(80,7)	(32,5)	(-5,2)	(-4,1)	
L1D -111>	(111,6)	(82,5)	(0,14)	(1,8)	(7,4)	(17,9)	(13,6)	(-6,4)	(190,1)	(2,10)	(115,2)	(182,4)	(112,3)	(-2,9)	(-1,2)	(41,2)	
L1D -110>	(0,46)	(194,1)	(111,6)	(110,15)	(-12,3)	(-1,5)	(98,6)	(2,15)	(1,16)	(117,2)	(-2,7)	(6,2)	(138,2)	(-100,8)	(87,2)	(108,4)	
L1D -109>	(0,7)	(1,8)	(108,2)	(315,1)	(-362,1)	(109,2)	(2,3)	(110,18)	(-5,1)	(-3,1)	(95,2)	(-12,1)	(154,1)	(7,2)	(100,1)	(13,2)	
L1D -108>	(0,46)	(-2,9)	(326,2)	(108,15)	(-76,5)	(2,28)	(130,4)	(22,3)	(115,2)	(8,2)	(105,1)	(3,4)	(-5,3)	(1,23)	(60,2)	(110,3)	
L1D -107>	(108,4)	(107,4)	(114,10)	(0,11)	(-76,15)	(1,7)	(32,3)	(3,3)	(54,2)	(-10,8)	(106,2)	(7,4)	(105,6)	(2,15)	(-1,1)	(182,1)	
L1D -106>	(1,9)	(0,11)	(-31,4)	(-22,2)	(2,8)	(105,2)	(-2,3)	(-3,2)	(-1,8)	(54,2)	(-6,7)	(106,2)	(103,2)	(162,1)	(124,1)	(8,2)	
L1D -105>	(105,6)	(2,25)	(103,3)	(60,1)	(69,4)	(107,7)	(104,3)	(53,11)	(106,2)	(-7,2)	(1,20)	(0,40)	(-1,5)	(8,2)	(-2,4)	(9,3)	
L1D -104>	(0,40)	(-10,8)	(50,1)	(94,4)	(104,14)	(100,6)	(8,7)	(1,9)	(108,3)	(-1,5)	(-9,14)	(-68,7)	(2,3)	(3,5)	(4,2)	(48,2)	
L1D -103>	(-61,48)	(-67,10)	(7,17)	(2,29)	(95,3)	(6,3)	(103,99)	(-66,2)	(12,2)	(-1,8)	(104,1)	(1,17)	(93,1)	(0,19)	(-2,18)	(275,1)	
L1D -102>	(-5,2)	(108,6)	(102,11)	(105,2)	(0,14)	(-25,2)	(1,9)	(3,3)	(-1,1)	(4,1)	(2,6)	(85,1)	(-2,14)	(-3,1)	(100,4)	(-195,1)	
L1D -101>	(65,18)	(5,3)	(-3,5)	(102,2)	(1,12)	(112,4)	(0,37)	(83,4)	(10,4)	(145,1)	(13,1)	(93,1)	(-2,4)	(100,5)	(2,4)	(-6,6)	
L1D -100>	(21,19)	(2,31)	(98,2)	(0,75)	(1,19)	(-2,11)	(100,19)	(12,14)	(73,1)	(30,10)	(-1,2)	(3,1)	(-101,1)	(88,2)	(9,6)	(95,1)	
L1D -99>	(0,110)	(63,6)	(99,9)	(6,2)	(2,10)	(-9,2)	(4,4)	(72,4)	(-5,1)	(95,1)	(105,1)	(80,1)	(-2,2)	(97,2)	(98,1)	(1,13)	
L1D -98>	(8,6)	(69,7)	(2,14)	(-2,4)	(98,3)	(6,8)	(-6,6)	(1,5)	(-3,8)	(-1,4)	(-20,4)	(0,121)	(80,6)	(105,2)	(485,2)	(97,4)	
L1D -97>	(1,17)	(2,9)	(99,2)	(96,4)	(110,2)	(30,3)	(6,8)	(17,2)	(4,1)	(64,2)	(340,1)	(72,3)	(0,9)	(-8,1)	(95,11)	(-2,12)	
L1D -96>	(98,1)	(88,6)	(0,21)	(96,2)	(-1,3)	(3,2)	(95,2)	(6,7)	(-24,9)	(-2,4)	(8,3)	(16,3)	(12,69)	(10,4)	(-32,2)	(-16,2)	
L1D -95>	(-258,2)	(2,25)	(7,7)	(0,51)	(175,1)	(1,23)	(-9,8)	(95,26)	(30,5)	(-15,2)	(-106,1)	(-260,5)	(18,3)	(-2,8)	(104,14)	(97,6)	
L1D -94>	(65,5)	(-31,15)	(-2,8)	(6,4)	(3,3)	(2,38)	(0,5)	(104,6)	(1,7)	(81,6)	(72,1)	(-10,7)	(94,6)	(110,2)	(100,2)	(93,2)	
L1D -93>	(8,4)	(31,4)	(0,43)	(99,4)	(102,1)	(6,8)	(1,19)	(2,46)	(-2,26)	(112,16)	(118,28)	(125,9)	(93,7)	(95,4)	(92,3)	(71,2)	
L1D -92>	(-36,2)	(0,28)	(92,30)	(63,6)	(4,3)	(-85,3)	(52,1)	(16,2)	(1,20)	(95,2)	(2,12)	(102,1)	(93,6)	(-3,6)	(3,1)	(90,5)	
L1D -91>	(-1,5)	(-2,11)	(7,4)	(47,4)	(-9,9)	(-144,1)	(9,2)	(-10,3)	(0,29)	(2,3)	(6,2)	(286,2)	(91,14)	(-3,11)	(98,3)	(3,8)	
L1D -90>	(0,71)	(2,117)	(90,28)	(8,5)	(102,6)	(1,23)	(27,4)	(-2,23)	(-1,17)	(-140,1)	(12,3)	(88,4)	(3,13)	(-4,15)	(89,5)	(-6,4)	
L1D -89>	(1,16)	(0,41)	(88,18)	(5,12)	(-139,15)	(41,3)	(-2,11)	(32,5)	(2,4)	(86,1)	(96,9)	(8,1)	(-156,1)	(89,2)	(-60,1)	(112,1)	
L1D -88>	(1,26)	(0,108)	(-3,12)	(88,39)	(72,12)	(8,14)	(2,21)	(10,6)	(92,5)	(84,11)	(90,8)	(85,6)	(32,9)	(-27,1)	(257,10)	(-2,53)	
L1D -87>	(1,15)	(-4,1)	(0,53)	(87,21)	(3,6)	(9,7)	(2,15)	(85,12)	(8,7)	(-3,3)	(84,4)	(-193,2)	(89,2)	(-2,6)	(6,7)	(88,2)	
L1D -86>	(1,8)	(0,16)	(88,3)	(87,4)	(84,2)	(-1,8)	(-2,5)	(-10,3)	(86,3)	(45,1)	(83,3)	(375,1)	(32,3)	(43,1)	(52,1)	(107,1)	
L1D -85>	(1,38)	(83,4)	(84,6)	(-52,2)	(8,3)	(85,13)	(95,2)	(-2,56)	(2,25)	(3,5)	(0,40)	(87,4)	(40,1)	(60,2)	(-1,4)	(290,1)	
L1D -84>	(84,27)	(7,16)	(6,3)	(-8,6)	(1,12)	(216,2)	(3,22)	(0,28)	(32,3)	(-1,9)	(90,5)	(11,1)	(-2,4)	(76,3)	(64,5)	(80,3)	
L1D -83>	(5,3)	(-6,10)	(23,3)	(0,33)	(85,4)	(2,26)	(3,1)	(83,4)	(1,13)	(-2,19)	(103,2)	(-10,3)	(-1,5)	(45,2)	(84,49)	(-7,2)	
L1D -82>	(82,119)	(-6,5)	(2,29)	(0,11)	(-9,6)	(91,3)	(8,101)	(4,26)	(-11,2)	(1,7)	(3,3)	(-12,6)	(-7,1)	(72,1)	(74,3)	(7,33)	
L1D -81>	(1,14)	(-6,6)	(80,7)	(0,19)	(8,3)	(84,3)	(2,11)	(40,1)	(6,3)	(-10,6)	(3,3)	(-3,2)	(81,16)	(91,5)	(-7,3)	(-2,5)	
L1D -80>	(0,88)	(-3,4)	(82,3)	(80,28)	(88,4)	(1,33)	(112,11)	(20,11)	(-24,18)	(81,3)	(234,1)	(2,34)	(79,36)	(-1,11)	(8,10)	(3,3)	
L1D -79>	(-21,71)	(79,3)	(50,20)	(0,13)	(8,2)	(7,6)	(90,4)	(1,1)	(-3,3)	(75,2)	(35,1)	(-2,2)	(-1,8)	(78,1)	(14,2)	(62,2)	
L1D -78>	(6,6)	(0,40)	(82,15)	(1,15)	(81,6)	(2,16)	(75,7)	(59,5)	(39,4)	(-2,22)	(83,3)	(93,7)	(8,3)	(80,4)	(78,29)	(-1,7)	
L1D -77>	(0,40)	(-101,16)	(-118,5)	(-105,2)	(77,9)	(-2,4)	(1,15)	(13,2)	(89,8)	(11,2)	(78,1)	(5,5)	(76,5)	(-3,2)	(2,13)	(75,3)	
L1D -76>	(76,40)	(1,1)	(217,4)	(98,2)	(0,53)	(-4,3)	(75,6)	(10,20)	(8,15)	(77,3)	(-1,8)	(48,3)	(40,2)	(74,3)	(-110,2)	(22,3)	
L1D -75>	(75,65)	(-50,5)	(0,53)	(-1,10)	(6,10)	(74,3)	(70,1)	(12,8)	(-67,20)	(10,10)	(-66,85)	(1,15)	(2,8)	(55,4)	(117,5)	(3,18)	
L1D -74>	(7,9)	(2,19)	(6,5)	(-1,7)	(0,44)	(9,33)	(-15,3)	(73,17)	(70,4)	(74,23)	(1,21)	(3,3)	(39,1)	(72,6)	(-6,12)	(75,4)	
L1D -73>	(-7,3)	(-5,7)	(73,17)	(2,45)	(7,11)	(77,7)	(0,28)	(75,7)	(-29,4)	(127,2)	(-1,14)	(74,5)	(253,2)	(-2,16)	(1,23)	(69,1)	
L1D -72>	(4,8)	(0,102)	(72,36)	(-2,11)	(70,8)	(1,21)	(257,8)	(2,13)	(107,12)	(74,13)	(96,7)	(71,4)	(-132,1)	(8,17)	(68,5)	(3,9)	
L1D -71>	(2,18)	(6,35)	(111,33)	(-6,8)	(71,10)	(0,13)	(-111,6)	(-12,1)	(72,5)	(3,5)	(-2,8)	(8,16)	(4,8)	(-31,4)	(1,70)	(-1,7)	
L1D -70>	(69,5)	(0,57)	(68,3)	(70,11)	(-285,1)	(72,4)	(18,2)	(75,3)	(1,78)	(-3,7)	(-40,2)	(74,2)	(3,8)	(-20,3)	(235,4)	(2,32)	
L1D -69>	(6,68)	(-1,12)	(69,10)	(2,6)	(-2,3)	(78,3)	(94,4)	(118,1)	(61,7)	(53,3)	(10,3)	(3,4)	(0,17)	(1,9)	(70,2)	(67,3)	
L1D -68>	(68,48)	(-6,8)	(70,5)	(0,54)	(10,3)	(2,28)	(39,3)	(-10,8)	(-2,19)	(1,36)	(63,3)	(8,6)	(92,1)	(-1,1)	(3,12)	(50,2)	
L1D -67>	(247,10)	(7,19)	(1,27)	(65,6)	(2,15)	(67,5)	(4,3)	(64,4)	(-220,23)	(68,8)	(-1,5)	(-2,8)	(-18,54)	(-11,16)	(-251,1)	(-13,4)	
L1D -66>	(-293,3)	(1,120)	(-18,8)	(-11,3)	(66,24)	(44,5)	(0,16)	(2,16)	(3,33)	(63,6)	(-7,3)	(-19,115)	(-12,31)	(68,1)	(-3,10)	(-271,2)	
L1D -65>	(28,1)	(-12,40)	(68,4)	(0,96)	(3,35)	(1,118)	(-9,41)	(9,4)	(39,5)	(-10,11)	(-6,9)	(65,21)	(-1,13)	(63,5)	(2,17)	(5,36)	
L1D -64>	(-18,8)	(24,9)	(-3,4)	(0,109)	(8,11)	(2,24)	(58,6)	(1,44)	(56,1)	(36,14)	(64,42)	(3,27)	(-1,18)	(80,7)	(48,9)	(72,11)	
L1D -63>	(1,43)	(-19,75)	(-3,9)	(0,73)	(-12,25)	(63,56)	(64,5)	(-1,12)	(3,11)	(43,7)	(-51,1)	(-2,23)	(-24,4)	(2,29)	(19,8)	(40,3)	
L1D -62>	(87,16)	(1,32)	(0,30)	(2,17)	(282,24)	(62,10)	(20,34)	(265,3)	(-8,9)	(-31,11)	(44,12)	(69,5)	(-2,7)	(-4,1)	(55,2)	(-3,18)	
L1D -61>	(247,24)	(1,121)	(60,13)	(0,26)	(-2,3)	(3,20)	(56,3)	(61,4)	(39,2)	(58,6)	(42,2)	(2,4)	(-218,2)	(9,7)	(6,3)	(53,1)	
L1D -60>	(1,103)	(0,64)	(60,68)	(10,4)	(2,27)	(-22,4)	(3,22)	(61,4)	(-1,25)	(125,1)	(-3,10)	(32,3)	(-30,5)	(-67,2)	(6,7)	(-2,15)	
L1D -59>	(7,8)	(3,58)	(252,7)	(1,64)	(0,21)	(13,6)	(19,3)	(57,8)	(36,3)	(8,5)	(35,3)	(27,3)	(-180,1)	(2,20)	(50,2)	(42,3)	
L1D -58>	(18,4)	(8,5)	(19,10)	(34,6)	(58,10)	(2,34)	(32,5)	(0,38)	(44,13)	(10,21)	(26,7)	(-1,6)	(1,63)	(-3,7)	(36,3)	(57,98)	
L1D -57>	(45,2)	(48,2)	(1,22)	(44,20)	(19,4)	(236,2)	(-3,5)	(56,4)	(-8,30)	(57,123)	(2,5)	(6,1)	(8,1)	(76,2)	(0,31)	(58,7)	
L1D -56>	(0,77)	(-1,9)	(45,6)	(88,1)	(1,24)	(53,11)	(29,3)	(2,20)	(56,22)	(64,6)	(57,5)	(-24,16)	(32,9)	(8,26)	(-6,41)	(3,19)	
L1D -55>	(1,34)	(52,6)	(-265,1)	(0,46)	(-2,24)	(55,33)	(56,21)	(54,19)	(20,100)	(3,42)	(4,22)	(2,46)	(46,4)	(-10,28)	(40,3)	(65,36)	
L1D -54>	(54,32)	(20,5)	(49,58)	(50,56)	(-1,27)	(1,19)	(18,8)	(9,14)	(2,90)	(48,4)	(43,92)	(3,52)	(30,4)	(-31,16)	(-110,1)	(55,5)	
L1D -53>	(53,82)	(170,31)	(4,12)	(-1,29)	(1,42)	(0,49)	(-2,26)	(54,22)	(26,23)	(52,6)	(68,1)	(34,22)	(2,51)	(-32,4)	(55,12)	(-4,9)	
L1D -52>	(-9,24)	(54,13)	(52,23)	(1,44)	(0,91)	(2,21)	(-1,21)	(-8,22)	(6,20)	(-10,23)	(53,13)	(3,27)	(4,67)	(44,10)	(8,1)	(-6,10)	
L1D -51>	(7,48)	(17,18)	(13,10)	(0,24)	(3,31)	(-1,15)	(-20,11)	(65,23)	(22,32)	(18,4)	(35,5)	(1,58)	(2,21)	(19,6)	(53,4)	(113,1)	
L1D -50>	(1,75)	(-2,12)	(3,13)	(-1,3)	(52,3)	(4,1)	(-3,9)	(60,3)	(49,105)	(74,2)	(0,22)	(50,57)	(42,12)	(46,5)	(2,23)	(257,3)	
L1D -49>	(8,6)	(49,38)	(1,37)	(27,5)	(48,5)	(0,14)	(-2,4)	(16,5)	(18,6)	(3,12)	(50,5)	(40,5)	(2,13)	(10,4)	(-6,4)	(-3,120)	
L1D -48>	(8,22)	(3,30)	(4,28)	(0,105)	(48,41)	(1,54)	(-88,7)	(2,73)	(5,9)	(49,102)	(43,17)	(-118,1)	(36,49)	(50,99)	(40,7)	(-2,8)	
L1D -47>	(3,21)	(-6,29)	(20,5)	(34,3)	(-4,76)	(0,18)	(46,7)	(2,18)	(-8,6)	(47,15)	(40,15)	(-2,12)	(44,15)	(1,42)	(45,14)	(-12,1)	
L1D -46>	(38,7)	(46,58)	(1,58)	(-6,101)	(14,13)	(47,123)	(2,66)	(45,13)	(-1,7)	(-4,2)	(0,24)	(3,44)	(-2,2)	(4,1)	(7,1)	(41,2)	
L1D -45>	(9,25)	(4,25)	(10,9)	(0,114)	(2,84)	(6,22)	(1,86)	(42,9)	(30,1)	(45,106)	(44,35)	(-6,40)	(5,7)	(46,8)	(-5,7)	(-1,96)	
L1D -44>	(1,49)	(96,1)	(-1,8)	(0,19)	(44,9)	(37,2)	(2,2)	(-5,2)	(51,4)	(43,2)	(36,9)	(66,2)	(8,72)	(15,43)	(17,19)	(53,13)	
L1D -43>	(1,119)	(15,116)	(4,17)	(2,84)	(-2,20)	(32,30)	(43,34)	(0,88)	(29,47)	(-5,22)	(40,14)	(45,17)	(30,8)	(-8,11)	(-1,36)	(-3,1)	
L1D -42>	(1,58)	(40,16)	(25,9)	(13,1)	(247,6)	(30,9)	(0,70)	(26,10)	(-3,21)	(-17,6)	(2,51)	(-1,7)	(35,42)	(3,51)	(42,52)	(-2,11)	
L1D -41>	(11,2)	(6,43)	(1,95)	(0,68)	(9,8)	(-2,9)	(32,10)	(37,8)	(2,56)	(41,8)	(19,8)	(40,11)	(5,10)	(16,9)	(7,9)	(3,42)	
L1D -40>	(1,58)	(0,120)	(-2,15)	(-3,9)	(5,12)	(4,30)	(43,11)	(40,74)	(2,91)	(37,12)	(41,14)	(-5,1)	(8,37)	(42,104)	(3,32)	(34,9)	
L1D -39>	(15,8)	(46,19)	(-1,9)	(1,87)	(40,8)	(0,44)	(-13,13)	(3,32)	(37,12)	(30,7)	(39,15)	(-3,22)	(8,18)	(-8,1)	(13,20)	(-9,11)	
L1D -38>	(-2,14)	(-6,52)	(36,49)	(1,84)	(2,39)	(-16,2)	(-8,18)	(0,54)	(8,8)	(39,22)	(40,8)	(6,18)	(35,8)	(-3,8)	(3,18)	(38,41)	
L1D -37>	(0,13)	(7,105)	(1,66)	(-6,3)	(2,7)	(23,20)	(30,3)	(36,4)	(22,14)	(15,3)	(37,17)	(3,10)	(39,3)	(38,9)	(8,4)	(4,7)	
L1D -36>	(1,19)	(10,13)	(38,96)	(0,65)	(-1,8)	(-84,1)	(36,68)	(9,8)	(-3,21)	(51,43)	(30,3)	(2,15)	(-6,26)	(-5,3)	(3,18)	(-2,8)	
L1D -35>	(-170,1)	(-1,26)	(1,24)	(30,8)	(35,68)	(36,4)	(0,42)	(25,5)	(2,30)	(7,4)	(-2,4)	(3,21)	(40,4)	(5,10)	(9,4)	(19,3)	
L1D -34>	(-200,11)	(1,127)	(34,39)	(-5,7)	(35,41)	(58,9)	(0,32)	(-21,12)	(8,10)	(-2,13)	(2,24)	(36,32)	(-1,34)	(-9,16)	(21,21)	(64,1)	
L1D -33>	(1,101)	(6,21)	(-2,10)	(49,7)	(-6,5)	(34,1)	(-8,16)	(33,28)	(19,7)	(2,35)	(4,5)	(3,21)	(0,57)	(32,15)	(44,11)	(-4,10)	
L1D -32>	(1,102)	(0,104)	(19,7)	(29,14)	(8,52)	(-44,1)	(2,46)	(16,21)	(11,7)	(34,61)	(-6,13)	(35,12)	(32,100)	(-152,42)	(12,6)	(33,15)	
L1D -31>	(31,53)	(1,96)	(184,9)	(0,66)	(-1,29)	(185,11)	(-139,10)	(4,7)	(2,36)	(20,8)	(44,101)	(3,108)	(30,98)	(7,49)	(-4,8)	(11,11)	
L1D -30>	(1,71)	(-30,7)	(0,116)	(-10,7)	(45,11)	(19,20)	(110,1)	(30,42)	(15,33)	(-6,5)	(-2,7)	(2,63)	(-1,13)	(3,25)	(10,8)	(17,6)	
L1D -29>	(1,103)	(-1,10)	(2,12)	(29,2)	(-10,2)	(48,2)	(11,1)	(-6,14)	(7,5)	(43,2)	(36,5)	(10,1)	(0,14)	(-9,1)	(30,1)	(24,3)	
L1D -28>	(1,77)	(252,4)	(30,5)	(-2,10)	(-8,4)	(0,57)	(29,12)	(-4,8)	(8,7)	(12,12)	(2,9)	(3,16)	(28,72)	(4,16)	(20,1)	(40,3)	
L1D -27>	(0,42)	(2,20)	(-24,1)	(1,44)	(-9,5)	(-6,45)	(3,17)	(28,7)	(-2,4)	(6,74)	(-3,6)	(29,9)	(-1,7)	(-5,4)	(9,8)	(27,18)	
L1D -26>	(20,5)	(6,4)	(1,15)	(26,6)	(0,83)	(-9,4)	(17,3)	(-3,14)	(2,4)	(-5,5)	(-10,2)	(-1,4)	(-13,13)	(-78,5)	(19,2)	(8,2)	
L1D -25>	(26,6)	(0,61)	(25,18)	(-1,22)	(2,29)	(22,20)	(1,82)	(12,9)	(5,4)	(8,16)	(-2,6)	(24,6)	(330,1)	(-3,5)	(20,5)	(10,3)	
L1D -24>	(-6,27)	(2,34)	(1,83)	(0,106)	(22,6)	(29,7)	(-4,1)	(26,6)	(28,7)	(-13,83)	(6,50)	(-24,8)	(8,15)	(24,45)	(25,8)	(-1,11)	
L1D -23>	(-15,3)	(1,47)	(37,16)	(17,3)	(-14,19)	(2,18)	(40,4)	(22,12)	(24,6)	(0,52)	(-1,10)	(9,98)	(-9,1)	(25,8)	(23,117)	(3,11)	
L1D -22>	(0,9)	(3,8)	(1,69)	(40,2)	(7,8)	(2,13)	(4,58)	(12,2)	(-9,2)	(-90,1)	(10,2)	(24,7)	(-2,26)	(15,1)	(-1,10)	(22,1)	
L1D -21>	(1,118)	(6,1)	(20,1)	(30,1)	(-6,0)	(12,0)	(21,0)	(0,4)	(5,0)	(22,0)	(36,0)	(111,0)	(-12,0)	(18,0)	(-1,0)	(2,5)	
L1D -20>	(-12,3)	(1,99)	(5,12)	(4,14)	(-10,5)	(10,17)	(-2,4)	(0,27)	(440,1)	(20,28)	(2,45)	(17,2)	(110,2)	(-5,3)	(21,7)	(-6,2)	
L1D -19>	(1,66)	(3,14)	(0,18)	(9,4)	(7,38)	(6,11)	(-1,23)	(2,18)	(16,3)	(20,3)	(19,19)	(22,4)	(-12,2)	(-3,2)	(-24,2)	(26,8)	
L1D -18>	(20,8)	(0,30)	(10,8)	(-9,20)	(3,13)	(18,48)	(45,6)	(16,6)	(1,68)	(15,1)	(-2,9)	(-54,3)	(-6,13)	(19,3)	(21,2)	(2,18)	
L1D -17>	(45,2)	(19,2)	(1,108)	(-2,7)	(0,53)	(-45,2)	(20,5)	(17,110)	(18,8)	(-3,11)	(3,19)	(8,2)	(2,12)	(9,1)	(-5,1)	(-121,1)	
L1D -16>	(24,1)	(16,105)	(1,121)	(-2,10)	(0,64)	(-16,8)	(-4,9)	(8,12)	(-3,13)	(5,6)	(3,21)	(11,4)	(-8,11)	(-6,6)	(18,126)	(2,35)	
L1D -15>	(6,122)	(15,6)	(3,16)	(1,122)	(27,8)	(-36,38)	(8,7)	(36,1)	(0,62)	(2,41)	(9,13)	(-1,10)	(17,4)	(5,14)	(10,6)	(45,5)	
L1D -14>	(1,102)	(-9,4)	(37,1)	(12,2)	(7,33)	(-10,10)	(-2,31)	(14,2)	(0,5)	(-20,4)	(4,21)	(3,1)	(9,2)	(17,0)	(2,1)	(58,0)	
L1D -13>	(-2,88)	(7,44)	(4,127)	(0,5)	(1,76)	(-6,1)	(2,5)	(99,1)	(-9,2)	(8,2)	(6,1)	(10,2)	(271,3)	(11,1)	(-1,0)	(-3,4)	
L1D -12>	(0,44)	(15,6)	(13,3)	(-3,13)	(3,22)	(4,4)	(-4,21)	(-53,1)	(10,5)	(7,5)	(1,88)	(36,3)	(8,15)	(12,16)	(345,18)	(2,21)	
L1D -11>	(1,77)	(-4,2)	(11,59)	(-22,3)	(43,2)	(24,13)	(37,8)	(0,67)	(271,2)	(12,4)	(2,5)	(13,6)	(3,25)	(-6,6)	(-98,18)	(-2,2)	
L1D -10>	(-2,14)	(0,12)	(257,4)	(7,4)	(3,9)	(6,5)	(9,1)	(1,108)	(-10,12)	(12,11)	(4,3)	(11,11)	(-3,8)	(10,9)	(-14,4)	(2,15)	
L1D -9>	(9,46)	(10,4)	(0,65)	(1,69)	(7,8)	(-3,1)	(-14,2)	(6,21)	(18,7)	(-9,5)	(-1,5)	(11,4)	(63,2)	(3,8)	(8,5)	(15,5)	
L1D -8>	(6,1)	(8,49)	(1,16)	(0,86)	(12,15)	(16,13)	(-6,11)	(24,4)	(-21,2)	(-8,48)	(-4,10)	(-14,4)	(4,10)	(2,7)	(-5,5)	(-13,5)	
L1D -7>	(0,31)	(-2,6)	(-3,17)	(1,83)	(-29,6)	(5,4)	(3,1)	(6,4)	(7,27)	(12,6)	(-19,3)	(-4,6)	(8,9)	(9,31)	(15,4)	(2,42)	
L1D -6>	(1,106)	(7,5)	(-1,3)	(-7,4)	(8,97)	(-6,8)	(-9,1)	(-3,10)	(2,3)	(0,32)	(196,0)	(14,0)	(15,2)	(-2,1)	(-44,9)	(4,0)	
L1D -5>	(0,4)	(-1,4)	(1,66)	(4,11)	(-3,10)	(8,5)	(7,15)	(18,2)	(2,8)	(20,2)	(154,1)	(5,1)	(6,54)	(15,13)	(12,1)	(24,2)	
L1D -4>	(6,6)	(0,55)	(1,83)	(-3,40)	(12,10)	(-9,12)	(-8,24)	(-6,7)	(2,39)	(-15,6)	(8,9)	(-12,40)	(154,1)	(3,30)	(-4,50)	(4,39)	
L1D -3>	(1,84)	(6,12)	(0,43)	(10,3)	(3,29)	(-4,5)	(18,3)	(-3,66)	(9,1)	(2,99)	(16,6)	(-2,51)	(15,8)	(-6,46)	(-15,8)	(4,55)	
L1D -2>	(6,92)	(1,126)	(2,15)	(-7,7)	(0,37)	(-2,10)	(-8,6)	(-3,3)	(-36,8)	(-30,3)	(-4,3)	(4,1)	(-16,2)	(-18,1)	(-37,10)	(3,7)	
L1D -1>	(5,11)	(1,66)	(0,62)	(11,4)	(-2,9)	(-16,5)	(20,11)	(8,28)	(23,4)	(2,28)	(6,7)	(-5,24)	(-1,14)	(-12,1)	(14,4)	(-4,63)	
L1D 0>	(-153,0)	(-19,0)	(0,67)	(-1,4)	(2,3)	(9,1)	(11,1)	(12,0)	(8,1)	(180,4)	(-180,1)	(17,0)	(-12,0)	(-165,0)	(1,3)	(3,0)	
L1D 1>	(161,1)	(1,78)	(6,1)	(-2,1)	(-1,6)	(22,1)	(0,5)	(10,1)	(-9,1)	(3,3)	(7,1)	(112,1)	(-7,1)	(91,1)	(-4,2)	(2,9)	
L1D 2>	(-5,57)	(-10,2)	(1,85)	(2,28)	(3,16)	(-8,3)	(5,11)	(-453,1)	(-127,1)	(-247,1)	(7,3)	(-128,1)	(-1,68)	(0,2)	(-2,7)	(-3,1)	
L1D 3>	(-1,25)	(9,16)	(10,8)	(2,45)	(-15,6)	(5,41)	(6,7)	(-3,14)	(1,102)	(15,4)	(3,40)	(-2,17)	(0,22)	(-10,1)	(8,10)	(-7,21)	
L1D 4>	(127,1)	(-13,115)	(0,105)	(-5,22)	(-17,6)	(1,63)	(2,66)	(-22,36)	(8,8)	(13,12)	(-9,4)	(-4,68)	(-2,9)	(-1,27)	(-3,10)	(4,38)	
L1D 5>	(5,19)	(6,1)	(-38,2)	(-12,5)	(-11,2)	(2,29)	(-9,2)	(-4,4)	(-6,10)	(1,66)	(3,25)	(-2,18)	(0,47)	(-1,20)	(-5,24)	(-3,9)	
L1D 6>	(27,3)	(6,46)	(-24,8)	(1,5)	(9,2)	(-2,2)	(-3,2)	(0,70)	(-67,2)	(113,2)	(-13,109)	(-1,3)	(-22,28)	(-6,117)	(2,9)	(-14,27)	
L1D 7>	(16,16)	(-51,4)	(-7,18)	(-44,12)	(10,33)	(-53,1)	(7,6)	(-14,3)	(6,11)	(9,7)	(0,25)	(2,5)	(-13,11)	(15,106)	(11,3)	(1,14)	
L1D 8>	(-5,121)	(2,3)	(-2,3)	(-12,8)	(-14,9)	(-4,8)	(4,9)	(-19,2)	(0,11)	(-15,3)	(8,9)	(-8,7)	(-3,3)	(3,3)	(1,33)	(44,2)	
L1D 9>	(11,24)	(24,12)	(-3,54)	(1,32)	(9,46)	(-16,3)	(0,19)	(2,24)	(18,4)	(-4,3)	(-9,95)	(-8,1)	(3,4)	(6,4)	(4,4)	(27,7)	
L1D 10>	(140,1)	(0,79)	(1,24)	(-9,21)	(-17,60)	(-14,5)	(3,26)	(-19,12)	(8,6)	(-3,10)	(2,34)	(-2,116)	(10,20)	(-20,22)	(5,11)	(-5,16)	
L1D 11>	(-6,17)	(-11,76)	(-383,1)	(-12,54)	(-1,19)	(-10,49)	(-5,61)	(10,35)	(0,35)	(12,16)	(1,49)	(29,5)	(8,41)	(3,9)	(260,14)	(2,72)	
L1D 12>	(-8,9)	(10,4)	(6,58)	(3,33)	(-9,6)	(2,55)	(-12,75)	(0,68)	(-3,8)	(4,21)	(1,31)	(-2,1)	(-4,45)	(-11,63)	(12,11)	(8,24)	
L1D 13>	(5,29)	(0,95)	(2,108)	(-7,1)	(-15,8)	(-12,102)	(-4,12)	(-1,21)	(-13,53)	(-11,25)	(1,74)	(-10,39)	(-44,84)	(-3,97)	(6,11)	(-5,27)	
L1D 14>	(257,6)	(5,9)	(-8,10)	(-14,91)	(-13,29)	(-53,1)	(2,49)	(-23,117)	(13,89)	(-6,6)	(-3,24)	(1,24)	(-2,8)	(-1,8)	(-9,7)	(0,31)	
L1D 15>	(-30,18)	(20,30)	(3,5)	(-24,30)	(-37,21)	(15,93)	(10,2)	(-5,1)	(7,12)	(2,5)	(-15,2)	(0,22)	(1,4)	(-20,1)	(6,10)	(-6,3)	
L1D 16>	(0,32)	(3,1)	(-16,64)	(11,8)	(-5,3)	(13,31)	(1,6)	(16,14)	(14,44)	(-2,12)	(2,11)	(38,7)	(4,4)	(-4,23)	(-3,23)	(8,37)	
L1D 17>	(-5,39)	(-20,7)	(-10,23)	(0,25)	(3,73)	(-16,17)	(6,10)	(-18,34)	(2,24)	(-3,20)	(13,1)	(-28,7)	(1,11)	(-33,7)	(-51,9)	(-13,16)	
L1D 18>	(9,24)	(-18,14)	(3,36)	(1,5)	(2,70)	(0,43)	(182,1)	(6,7)	(-5,10)	(26,5)	(24,2)	(18,11)	(-20,5)	(-13,35)	(13,9)	(-21,3)	
L1D 19>	(1,101)	(-4,6)	(-19,17)	(32,16)	(2,6)	(-186,40)	(-15,7)	(7,21)	(-10,14)	(-5,4)	(-1,18)	(-2,11)	(8,7)	(0,103)	(-6,2)	(-20,12)	
L1D 20>	(2,53)	(10,12)	(3,1)	(-19,22)	(-4,67)	(1,72)	(-20,69)	(-3,33)	(-47,7)	(-186,6)	(-8,10)	(4,8)	(-6,36)	(0,109)	(-13,52)	(90,12)	
L1D 21>	(-21,45)	(-27,3)	(-31,4)	(6,76)	(2,15)	(179,11)	(-20,17)	(1,1)	(4,2)	(-16,2)	(90,2)	(3,7)	(0,8)	(7,2)	(13,14)	(-1,17)	
L1D 22>	(1,43)	(-22,80)	(-35,8)	(-7,15)	(12,1)	(0,68)	(2,113)	(-9,47)	(-13,53)	(-6,37)	(8,14)	(-8,15)	(-2,9)	(-1,8)	(15,25)	(-4,10)	
L1D 23>	(-21,3)	(-17,21)	(0,99)	(-3,18)	(-23,69)	(1,16)	(-4,1)	(2,32)	(-1,3)	(-24,10)	(14,7)	(-22,3)	(-14,62)	(-33,2)	(3,21)	(90,6)	
L1D 24>	(10,6)	(-9,18)	(-10,12)	(2,43)	(0,126)	(116,1)	(24,57)	(-18,13)	(-4,33)	(12,9)	(-6,84)	(16,11)	(-24,76)	(-32,6)	(8,42)	(1,44)	
L1D 25>	(-201,9)	(-2,16)	(7,8)	(201,25)	(-24,17)	(2,88)	(15,15)	(1,40)	(-25,80)	(0,73)	(-19,4)	(-13,4)	(-26,15)	(10,11)	(30,1)	(-14,6)	
L1D 26>	(-7,21)	(0,69)	(-21,1)	(-26,36)	(-5,25)	(-16,6)	(-25,9)	(-24,9)	(-37,5)	(-54,4)	(-27,10)	(2,14)	(-9,6)	(-3,20)	(1,19)	(-10,38)	
L1D 27>	(-53,14)	(-28,9)	(0,107)	(-27,68)	(117,17)	(3,44)	(-25,10)	(-9,25)	(4,2)	(-26,9)	(-21,11)	(2,67)	(-6,16)	(6,70)	(1,6)	(-2,25)	
L1D 28>	(-12,10)	(1,45)	(0,54)	(-28,65)	(2,46)	(-2,21)	(156,4)	(-208,33)	(-27,6)	(-31,4)	(-16,6)	(-35,4)	(3,2)	(-1,8)	(-64,3)	(8,4)	
L1D 29>	(3,3)	(19,15)	(-28,76)	(-2,20)	(24,10)	(1,65)	(-30,38)	(-16,15)	(0,101)	(-6,8)	(-3,112)	(-29,82)	(2,98)	(-37,48)	(13,21)	(9,42)	
L1D 30>	(-5,7)	(-28,37)	(-20,7)	(2,42)	(0,111)	(-30,52)	(6,78)	(-29,36)	(1,41)	(-10,8)	(15,97)	(-145,1)	(5,9)	(-6,16)	(10,8)	(-37,80)	
L1D 31>	(1,48)	(-14,15)	(-32,42)	(-30,83)	(5,6)	(-31,22)	(81,14)	(84,8)	(0,67)	(-64,13)	(-8,9)	(2,44)	(-29,1)	(-1,46)	(10,99)	(-42,22)	
L1D 32>	(2,31)	(-33,6)	(8,24)	(-32,44)	(4,14)	(-4,12)	(3,12)	(-49,34)	(1,18)	(-46,121)	(0,56)	(16,13)	(-30,13)	(-16,6)	(-12,1)	(64,4)	
L1D 33>	(-35,12)	(0,57)	(-33,21)	(-30,11)	(-3,9)	(-34,42)	(6,16)	(11,37)	(-14,18)	(-31,9)	(-32,35)	(-46,21)	(-233,6)	(-6,48)	(2,89)	(-12,1)	
L1D 34>	(9,24)	(-1,23)	(-16,12)	(1,45)	(-34,2)	(-234,11)	(-233,11)	(-58,23)	(-6,14)	(-3,9)	(-35,18)	(-10,16)	(-5,9)	(-2,13)	(-13,96)	(-33,28)	
L1D 35>	(-36,10)	(-35,78)	(-25,1)	(-46,22)	(20,3)	(-9,17)	(-26,32)	(-13,16)	(0,27)	(-24,3)	(1,15)	(2,33)	(-15,5)	(5,8)	(-11,4)	(-44,3)	
L1D 36>	(2,88)	(-19,6)	(-47,17)	(-36,79)	(5,32)	(0,85)	(-9,13)	(1,14)	(-7,34)	(8,1)	(-1,25)	(-6,11)	(3,31)	(12,9)	(6,24)	(28,10)	
L1D 37>	(-51,25)	(7,20)	(-37,90)	(1,33)	(-35,13)	(-23,110)	(-36,21)	(2,86)	(-14,28)	(-31,1)	(-2,22)	(0,91)	(-5,11)	(-1,15)	(-38,22)	(13,22)	
L1D 38>	(0,42)	(-2,107)	(-5,10)	(45,1)	(-14,22)	(-37,41)	(-43,12)	(-16,18)	(-46,46)	(1,18)	(6,23)	(-19,26)	(-36,21)	(2,104)	(-47,25)	(-6,10)	
L1D 39>	(-1,60)	(4,8)	(6,42)	(-46,9)	(-15,8)	(0,124)	(-32,38)	(-31,10)	(-29,17)	(-27,11)	(-39,110)	(-40,17)	(-2,9)	(1,82)	(-38,1)	(-10,31)	
L1D 40>	(-11,43)	(-40,74)	(-10,52)	(-41,15)	(-31,5)	(-39,18)	(0,101)	(5,8)	(-1,22)	(-20,110)	(-42,5)	(-5,58)	(1,29)	(2,39)	(-15,77)	(-35,1)	
L1D 41>	(2,10)	(-35,56)	(-14,10)	(0,64)	(-41,126)	(1,22)	(-6,10)	(-10,6)	(-40,9)	(-7,15)	(-1,31)	(-17,10)	(-12,1)	(-13,8)	(-3,9)	(-5,29)	
L1D 42>	(-3,29)	(16,6)	(-6,56)	(0,94)	(8,8)	(1,11)	(-10,5)	(-40,15)	(-2,39)	(10,6)	(-46,9)	(-41,5)	(-42,34)	(-28,1)	(-44,6)	(2,30)	
L1D 43>	(-46,42)	(-50,16)	(-33,1)	(1,62)	(0,68)	(-49,35)	(-44,25)	(-37,10)	(-2,12)	(-53,8)	(17,10)	(-16,47)	(-13,63)	(22,13)	(2,51)	(11,17)	
L1D 44>	(-51,11)	(9,7)	(1,45)	(12,5)	(-3,11)	(-41,8)	(0,40)	(-43,21)	(-44,43)	(7,23)	(-1,29)	(-50,1)	(-30,47)	(2,17)	(-13,65)	(-35,17)	
L1D 45>	(-17,9)	(-43,11)	(-28,33)	(5,10)	(-4,48)	(-60,1)	(1,32)	(0,65)	(-46,12)	(-3,9)	(-2,24)	(-44,14)	(2,47)	(-45,63)	(-1,10)	(-20,35)	
L1D 46>	(0,117)	(-31,49)	(18,7)	(-39,12)	(2,70)	(161,23)	(-3,7)	(-1,38)	(-46,62)	(-60,6)	(-2,15)	(8,2)	(6,12)	(-65,7)	(1,24)	(-47,44)	
L1D 47>	(0,36)	(1,43)	(-46,57)	(-82,72)	(-73,8)	(-55,5)	(-2,17)	(-27,51)	(-45,48)	(19,1)	(-1,6)	(2,93)	(18,12)	(-48,6)	(-47,11)	(-3,80)	
L1D 48>	(-9,13)	(-1,8)	(1,25)	(0,74)	(-48,60)	(-3,22)	(-26,9)	(-16,8)	(-6,6)	(6,6)	(-49,13)	(-39,14)	(3,1)	(-50,9)	(2,17)	(-51,8)	
L1D 49>	(1,13)	(-4,5)	(-49,30)	(-31,10)	(-7,19)	(-2,6)	(-6,6)	(-50,36)	(3,8)	(-234,1)	(-48,115)	(-30,2)	(0,28)	(2,24)	(-10,6)	(-1,17)	
L1D 50>	(-8,21)	(40,15)	(15,1)	(1,14)	(0,28)	(-50,48)	(-61,23)	(-51,2)	(-2,6)	(-31,3)	(-32,21)	(-1,64)	(5,2)	(2,7)	(-54,2)	(-41,2)	
L1D 51>	(-51,39)	(6,10)	(0,51)	(-82,24)	(1,23)	(-52,35)	(-75,13)	(-6,19)	(18,7)	(2,27)	(63,1)	(3,13)	(-9,8)	(-3,13)	(-15,52)	(-8,14)	
L1D 52>	(-4,20)	(1,26)	(0,105)	(-1,24)	(-9,20)	(-52,71)	(52,14)	(2,37)	(-2,11)	(6,11)	(13,41)	(-60,68)	(3,1)	(-3,43)	(65,6)	(-8,12)	
L1D 53>	(-27,81)	(25,42)	(0,28)	(3,10)	(-9,35)	(7,23)	(-43,9)	(-53,57)	(-14,7)	(2,45)	(-58,18)	(9,1)	(-106,6)	(-1,17)	(1,24)	(-52,7)	
L1D 54>	(-36,12)	(0,51)	(-55,22)	(1,26)	(-54,32)	(-2,28)	(-414,1)	(-18,12)	(6,17)	(-1,20)	(-53,29)	(-57,8)	(-6,12)	(2,59)	(-3,14)	(-32,9)	
L1D 55>	(-55,21)	(2,37)	(-7,7)	(0,127)	(-2,9)	(-66,108)	(-14,68)	(-9,5)	(1,36)	(10,34)	(-3,27)	(52,32)	(-1,6)	(7,5)	(-56,10)	(-60,1)	
L1D 56>	(0,77)	(-56,40)	(-80,9)	(2,28)	(-24,13)	(-57,40)	(-1,8)	(-60,7)	(8,9)	(-4,1)	(9,4)	(-47,4)	(5,3)	(-10,3)	(1,39)	(-3,6)	
L1D 57>	(-65,81)	(-254,4)	(2,16)	(0,33)	(6,13)	(-26,4)	(-13,38)	(-57,37)	(1,96)	(164,12)	(-1,7)	(-3,5)	(-210,1)	(-59,7)	(-2,14)	(-257,2)	
L1D 58>	(-19,7)	(2,13)	(-52,3)	(-29,5)	(163,47)	(-58,27)	(0,37)	(8,1)	(-62,4)	(18,82)	(-1,23)	(1,25)	(-6,6)	(-43,2)	(-57,4)	(-9,13)	
L1D 59>	(0,22)	(-24,5)	(-62,4)	(-60,10)	(1,24)	(-1,8)	(23,3)	(6,21)	(40,4)	(2,14)	(-50,1)	(-40,2)	(-14,2)	(-59,6)	(3,3)	(-185,3)	
L1D 60>	(-60,50)	(0,67)	(-3,5)	(-82,10)	(-4,5)	(6,5)	(-6,4)	(-2,11)	(-58,4)	(1,14)	(-70,1)	(-43,56)	(2,21)	(-71,32)	(-18,2)	(161,3)	
L1D 61>	(-37,4)	(0,26)	(2,33)	(1,6)	(-62,38)	(163,15)	(24,1)	(7,8)	(-1,13)	(8,5)	(-19,6)	(-9,18)	(-60,5)	(-26,6)	(4,3)	(-18,5)	
L1D 62>	(-62,16)	(18,107)	(3,14)	(-54,6)	(-1,10)	(-75,4)	(0,35)	(-64,17)	(8,4)	(-52,10)	(2,16)	(7,22)	(-2,11)	(-42,37)	(1,13)	(-70,55)	
L1D 63>	(-82,84)	(-73,5)	(18,21)	(-75,36)	(-9,14)	(-65,5)	(-1,14)	(2,18)	(0,36)	(-60,6)	(-21,5)	(-6,11)	(-63,37)	(-18,6)	(1,21)	(-92,1)	
L1D 64>	(140,38)	(-82,94)	(-75,32)	(-69,8)	(-88,1)	(-32,73)	(24,11)	(0,74)	(-45,4)	(-63,11)	(-22,9)	(-24,27)	(-64,37)	(-50,76)	(1,21)	(-16,25)	
L1D 65>	(-76,36)	(-46,8)	(-60,1)	(8,9)	(-9,16)	(2,27)	(-29,12)	(4,4)	(7,18)	(1,14)	(0,80)	(-1,21)	(-10,44)	(13,28)	(-65,35)	(-67,52)	
L1D 66>	(-84,30)	(0,44)	(-49,4)	(-66,3)	(-77,5)	(-88,1)	(1,17)	(-1,28)	(6,21)	(-3,21)	(4,3)	(-57,2)	(2,19)	(-65,4)	(-2,6)	(-74,5)	
L1D 67>	(1,28)	(-69,10)	(-3,5)	(0,36)	(-67,12)	(18,33)	(-68,13)	(2,34)	(-25,3)	(8,1)	(-2,44)	(-1,9)	(-65,2)	(-28,2)	(-59,3)	(-60,2)	
L1D 68>	(0,93)	(-68,22)	(2,21)	(1,20)	(-67,5)	(-4,7)	(-69,11)	(-60,12)	(-9,6)	(10,8)	(-3,26)	(-22,1)	(-65,5)	(-70,16)	(-2,5)	(-1,21)	
L1D 69>	(-63,79)	(-8,10)	(40,1)	(0,28)	(-64,2)	(-72,6)	(3,4)	(2,20)	(-69,16)	(-1,4)	(1,13)	(-58,4)	(-79,2)	(9,3)	(-2,4)	(-6,19)	
L1D 70>	(2,25)	(-1,8)	(7,7)	(-5,7)	(-70,5)	(80,1)	(-6,18)	(3,4)	(0,46)	(1,34)	(18,35)	(4,3)	(10,3)	(-2,21)	(-20,3)	(-10,7)	
L1D 71>	(40,75)	(-94,5)	(-69,7)	(-65,31)	(-71,20)	(0,18)	(7,18)	(-79,1)	(-78,12)	(-1,8)	(4,3)	(1,11)	(2,10)	(-72,10)	(3,2)	(-75,2)	
L1D 72>	(4,8)	(-9,7)	(3,11)	(0,100)	(-6,9)	(16,16)	(-72,48)	(-73,6)	(-8,8)	(8,26)	(-18,15)	(-2,19)	(1,18)	(378,1)	(-70,8)	(2,32)	
L1D 73>	(8,7)	(0,33)	(-75,6)	(-76,1)	(2,14)	(-21,2)	(-1,11)	(-5,3)	(-3,5)	(-71,4)	(1,26)	(-73,12)	(-2,8)	(-66,3)	(-8,2)	(143,3)	
L1D 74>	(-74,31)	(0,26)	(6,4)	(1,17)	(2,13)	(18,5)	(-52,5)	(-2,15)	(4,3)	(12,4)	(-1,14)	(8,3)	(16,1)	(-9,36)	(-65,40)	(-66,5)	
L1D 75>	(-69,44)	(-60,13)	(-63,5)	(0,57)	(-75,71)	(9,8)	(-47,15)	(2,8)	(-72,5)	(-73,6)	(5,1)	(6,9)	(1,19)	(-80,7)	(-254,6)	(-10,11)	
L1D 76>	(-68,39)	(0,32)	(-75,4)	(-80,4)	(-76,12)	(1,11)	(2,7)	(8,4)	(-3,6)	(-4,12)	(-213,4)	(-206,1)	(-77,3)	(3,2)	(-1,6)	(-11,3)	
L1D 77>	(-71,23)	(-77,20)	(-84,4)	(-49,3)	(0,22)	(-75,6)	(-508,1)	(-2,25)	(-76,4)	(-1,5)	(1,9)	(-26,4)	(-4,7)	(12,8)	(-80,3)	(2,18)	
L1D 78>	(10,1)	(-2,11)	(-88,6)	(0,13)	(-6,15)	(41,2)	(1,8)	(-78,14)	(6,5)	(2,16)	(-1,3)	(-83,7)	(43,4)	(-82,2)	(26,14)	(-9,4)	
L1D 79>	(-186,90)	(-4,0)	(-2,0)	(-3,0)	(-1,0)	(-83,9)	(2,2)	(3,0)	(24,0)	(-368,0)	(4,0)	(-8,0)	(98,0)	(0,0)	(-6,1)	(1,1)	
L1D 80>	(0,69)	(196,47)	(-186,28)	(1,32)	(-80,30)	(24,8)	(2,12)	(7,15)	(-76,6)	(-72,9)	(16,6)	(-83,8)	(5,1)	(-192,7)	(32,7)	(-152,6)	
L1D 81>	(10,7)	(0,25)	(-6,9)	(164,14)	(8,6)	(144,1)	(-2,4)	(4,7)	(-80,14)	(64,5)	(-81,9)	(-1,8)	(2,6)	(-18,18)	(-85,3)	(-9,8)	
L1D 82>	(-75,113)	(63,5)	(-63,2)	(45,1)	(-2,9)	(9,3)	(-8,2)	(0,13)	(-1,1)	(5,1)	(8,7)	(-74,5)	(1,7)	(-66,1)	(-82,4)	(-78,3)	
L1D 83>	(193,5)	(0,13)	(-85,8)	(2,15)	(-26,1)	(-2,5)	(1,7)	(-254,3)	(15,2)	(-43,2)	(-40,2)	(4,2)	(179,2)	(29,3)	(-50,3)	(-83,4)	
L1D 84>	(-77,37)	(-123,9)	(-3,7)	(-52,7)	(0,25)	(-90,4)	(-115,12)	(-38,1)	(22,3)	(1,11)	(-80,48)	(10,2)	(-164,2)	(-92,4)	(6,7)	(-83,8)	
L1D 85>	(-71,3)	(40,15)	(1,29)	(-105,12)	(7,7)	(5,17)	(-220,22)	(6,3)	(-86,4)	(0,46)	(-1,10)	(10,5)	(-82,5)	(-230,7)	(2,18)	(175,1)	
L1D 86>	(196,50)	(-99,1)	(-78,12)	(200,44)	(20,3)	(4,5)	(0,11)	(-106,3)	(-2,4)	(-213,2)	(-1,11)	(2,3)	(-34,5)	(-53,3)	(1,10)	(-72,5)	
L1D 87>	(201,79)	(8,4)	(0,54)	(1,24)	(200,84)	(-3,6)	(-21,4)	(-80,1)	(-117,3)	(202,3)	(2,33)	(-2,13)	(-87,33)	(3,4)	(6,11)	(-6,28)	
L1D 88>	(-8,1)	(1,24)	(-88,29)	(-92,4)	(2,15)	(212,4)	(0,66)	(-87,5)	(-2,16)	(9,6)	(20,28)	(32,16)	(-10,12)	(-78,6)	(-16,13)	(-49,6)	
L1D 89>	(7,16)	(-89,7)	(-1,14)	(-3,31)	(45,1)	(64,39)	(-27,3)	(-49,2)	(-2,8)	(-54,3)	(1,5)	(-42,8)	(-228,8)	(0,10)	(-90,4)	(-88,5)	
L1D 90>	(2,33)	(-90,50)	(0,61)	(-11,13)	(1,22)	(-92,5)	(63,102)	(-2,9)	(185,1)	(-6,13)	(-1,8)	(-3,10)	(-113,11)	(6,7)	(-110,9)	(-65,4)	
L1D 91>	(235,3)	(-1,5)	(-82,3)	(-3,6)	(0,31)	(-84,7)	(-9,10)	(-26,15)	(13,30)	(2,5)	(1,4)	(-5,13)	(-10,12)	(-91,11)	(-90,1)	(-100,3)	
L1D 92>	(-183,2)	(0,61)	(-82,3)	(-88,2)	(-1,5)	(1,22)	(8,2)	(128,1)	(-2,9)	(3,3)	(-4,4)	(-95,4)	(-203,1)	(-92,11)	(24,1)	(2,14)	
L1D 93>	(-91,5)	(-65,3)	(-95,5)	(0,13)	(11,1)	(-93,38)	(25,32)	(38,4)	(32,14)	(-3,5)	(200,4)	(1,8)	(3,2)	(-92,6)	(-2,12)	(2,16)	
L1D 94>	(-96,4)	(2,27)	(1,13)	(51,3)	(7,3)	(201,9)	(-3,8)	(13,3)	(-9,7)	(0,18)	(10,13)	(-2,8)	(-80,4)	(-26,4)	(80,1)	(-5,2)	
L1D 95>	(-93,5)	(0,68)	(1,45)	(-97,6)	(-4,2)	(-95,26)	(-183,14)	(-1,13)	(-2,12)	(-115,2)	(-20,1)	(-88,3)	(9,3)	(70,1)	(177,1)	(2,19)	
L1D 96>	(4,3)	(-115,112)	(152,10)	(7,3)	(0,32)	(-96,17)	(3,3)	(2,9)	(-8,12)	(-24,5)	(-72,4)	(-48,4)	(1,13)	(-6,3)	(-94,3)	(-104,1)	
L1D 97>	(7,6)	(1,20)	(0,25)	(8,9)	(63,3)	(2,28)	(-1,5)	(75,2)	(-2,16)	(-98,2)	(-3,4)	(-94,2)	(-30,3)	(-100,3)	(-97,6)	(-6,2)	
L1D 98>	(-1,8)	(0,11)	(7,17)	(1,20)	(-174,3)	(6,6)	(-101,6)	(-100,13)	(-96,3)	(2,13)	(-9,2)	(-18,2)	(-95,4)	(-2,5)	(-102,2)	(-98,4)	
L1D 99>	(-99,96)	(0,20)	(1,9)	(-100,3)	(-28,1)	(4,5)	(-18,14)	(27,3)	(-1,7)	(-9,9)	(9,2)	(-96,3)	(6,2)	(-116,2)	(-2,5)	(-4,3)	
[...]
L1D 478>	(-4,2)	(1,0)	(1,0)	(1,0)	(1,0)	(1,0)	(1,0)	(1,0)	(1,0)	(1,0)	(1,0)	(1,0)	(1,0)	(1,0)	(1,0)	(1,0)	
L1D 479>	(-2,2)	(1,0)	(1,0)	(1,0)	(1,0)	(1,0)	(1,0)	(1,0)	(1,0)	(1,0)	(1,0)	(1,0)	(1,0)	(1,0)	(1,0)	(1,0)	
L1D 480>	(0,1)	(-298,1)	(2,4)	(-480,1)	(-150,3)	(-16,3)	(-473,1)	(-160,2)	(1,0)	(1,0)	(1,0)	(1,0)	(1,0)	(1,0)	(1,0)	(1,0)	
L1D 481>	(1,0)	(1,0)	(1,0)	(1,0)	(1,0)	(1,0)	(1,0)	(1,0)	(1,0)	(1,0)	(1,0)	(1,0)	(1,0)	(1,0)	(1,0)	(1,0)	
L1D 482>	(-6,2)	(0,3)	(2,2)	(1,1)	(-176,2)	(1,0)	(1,0)	(1,0)	(1,0)	(1,0)	(1,0)	(1,0)	(1,0)	(1,0)	(1,0)	(1,0)	
L1D 483>	(2,1)	(-380,1)	(1,0)	(1,0)	(1,0)	(1,0)	(1,0)	(1,0)	(1,0)	(1,0)	(1,0)	(1,0)	(1,0)	(1,0)	(1,0)	(1,0)	
L1D 484>	(-484,10)	(1,0)	(1,0)	(1,0)	(1,0)	(1,0)	(1,0)	(1,0)	(1,0)	(1,0)	(1,0)	(1,0)	(1,0)	(1,0)	(1,0)	(1,0)	
L1D 485>	(0,1)	(-2,2)	(-380,2)	(-425,1)	(1,0)	(1,0)	(1,0)	(1,0)	(1,0)	(1,0)	(1,0)	(1,0)	(1,0)	(1,0)	(1,0)	(1,0)	
L1D 486>	(0,3)	(-484,1)	(-486,1)	(-502,3)	(-1,1)	(1,1)	(4,2)	(-396,1)	(1,0)	(1,0)	(1,0)	(1,0)	(1,0)	(1,0)	(1,0)	(1,0)	
L1D 487>	(-488,2)	(0,2)	(1,2)	(-2,2)	(-5,1)	(1,0)	(1,0)	(1,0)	(1,0)	(1,0)	(1,0)	(1,0)	(1,0)	(1,0)	(1,0)	(1,0)	
L1D 488>	(1,1)	(-488,3)	(0,2)	(-489,1)	(2,5)	(-490,6)	(1,0)	(1,0)	(1,0)	(1,0)	(1,0)	(1,0)	(1,0)	(1,0)	(1,0)	(1,0)	
L1D 489>	(-3,3)	(-488,2)	(0,2)	(-471,2)	(2,1)	(1,0)	(1,0)	(1,0)	(1,0)	(1,0)	(1,0)	(1,0)	(1,0)	(1,0)	(1,0)	(1,0)	
L1D 490>	(1,1)	(0,3)	(1,0)	(1,0)	(1,0)	(1,0)	(1,0)	(1,0)	(1,0)	(1,0)	(1,0)	(1,0)	(1,0)	(1,0)	(1,0)	(1,0)	
L1D 491>	(-15,1)	(-4,1)	(1,0)	(1,0)	(1,0)	(1,0)	(1,0)	(1,0)	(1,0)	(1,0)	(1,0)	(1,0)	(1,0)	(1,0)	(1,0)	(1,0)	
L1D 492>	(-488,2)	(2,2)	(1,0)	(1,0)	(1,0)	(1,0)	(1,0)	(1,0)	(1,0)	(1,0)	(1,0)	(1,0)	(1,0)	(1,0)	(1,0)	(1,0)	
L1D 493>	(-1,1)	(-4,1)	(-2,2)	(1,0)	(1,0)	(1,0)	(1,0)	(1,0)	(1,0)	(1,0)	(1,0)	(1,0)	(1,0)	(1,0)	(1,0)	(1,0)	
L1D 494>	(0,1)	(-510,1)	(-441,1)	(-330,2)	(-4,1)	(1,0)	(1,0)	(1,0)	(1,0)	(1,0)	(1,0)	(1,0)	(1,0)	(1,0)	(1,0)	(1,0)	
L1D 495>	(2,1)	(-485,3)	(1,0)	(1,0)	(1,0)	(1,0)	(1,0)	(1,0)	(1,0)	(1,0)	(1,0)	(1,0)	(1,0)	(1,0)	(1,0)	(1,0)	
L1D 496>	(1,2)	(2,1)	(1,0)	(1,0)	(1,0)	(1,0)	(1,0)	(1,0)	(1,0)	(1,0)	(1,0)	(1,0)	(1,0)	(1,0)	(1,0)	(1,0)	
L1D 497>	(-32,1)	(1,0)	(1,0)	(1,0)	(1,0)	(1,0)	(1,0)	(1,0)	(1,0)	(1,0)	(1,0)	(1,0)	(1,0)	(1,0)	(1,0)	(1,0)	
L1D 498>	(-20,1)	(1,0)	(1,0)	(1,0)	(1,0)	(1,0)	(1,0)	(1,0)	(1,0)	(1,0)	(1,0)	(1,0)	(1,0)	(1,0)	(1,0)	(1,0)	
L1D 499>	(1,0)	(1,0)	(1,0)	(1,0)	(1,0)	(1,0)	(1,0)	(1,0)	(1,0)	(1,0)	(1,0)	(1,0)	(1,0)	(1,0)	(1,0)	(1,0)	
L1D 500>	(1,0)	(1,0)	(1,0)	(1,0)	(1,0)	(1,0)	(1,0)	(1,0)	(1,0)	(1,0)	(1,0)	(1,0)	(1,0)	(1,0)	(1,0)	(1,0)	
L1D 501>	(0,2)	(-501,3)	(-70,1)	(1,0)	(1,0)	(1,0)	(1,0)	(1,0)	(1,0)	(1,0)	(1,0)	(1,0)	(1,0)	(1,0)	(1,0)	(1,0)	
L1D 502>	(-12,1)	(1,1)	(-460,1)	(1,0)	(1,0)	(1,0)	(1,0)	(1,0)	(1,0)	(1,0)	(1,0)	(1,0)	(1,0)	(1,0)	(1,0)	(1,0)	
L1D 503>	(-2,1)	(1,1)	(1,0)	(1,0)	(1,0)	(1,0)	(1,0)	(1,0)	(1,0)	(1,0)	(1,0)	(1,0)	(1,0)	(1,0)	(1,0)	(1,0)	
L1D 504>	(1,1)	(-504,3)	(-498,1)	(1,0)	(1,0)	(1,0)	(1,0)	(1,0)	(1,0)	(1,0)	(1,0)	(1,0)	(1,0)	(1,0)	(1,0)	(1,0)	
L1D 505>	(0,2)	(2,1)	(1,0)	(1,0)	(1,0)	(1,0)	(1,0)	(1,0)	(1,0)	(1,0)	(1,0)	(1,0)	(1,0)	(1,0)	(1,0)	(1,0)	
L1D 506>	(1,0)	(1,0)	(1,0)	(1,0)	(1,0)	(1,0)	(1,0)	(1,0)	(1,0)	(1,0)	(1,0)	(1,0)	(1,0)	(1,0)	(1,0)	(1,0)	
L1D 507>	(-4,1)	(1,0)	(1,0)	(1,0)	(1,0)	(1,0)	(1,0)	(1,0)	(1,0)	(1,0)	(1,0)	(1,0)	(1,0)	(1,0)	(1,0)	(1,0)	
L1D 508>	(1,0)	(1,0)	(1,0)	(1,0)	(1,0)	(1,0)	(1,0)	(1,0)	(1,0)	(1,0)	(1,0)	(1,0)	(1,0)	(1,0)	(1,0)	(1,0)	
L1D 509>	(-509,3)	(-405,1)	(1,0)	(1,0)	(1,0)	(1,0)	(1,0)	(1,0)	(1,0)	(1,0)	(1,0)	(1,0)	(1,0)	(1,0)	(1,0)	(1,0)	
L1D 510>	(1,0)	(1,0)	(1,0)	(1,0)	(1,0)	(1,0)	(1,0)	(1,0)	(1,0)	(1,0)	(1,0)	(1,0)	(1,0)	(1,0)	(1,0)	(1,0)	
L1D 511>	(1,0)	(1,0)	(1,0)	(1,0)	(1,0)	(1,0)	(1,0)	(1,0)	(1,0)	(1,0)	(1,0)	(1,0)	(1,0)	(1,0)	(1,0)	(1,0)	

L2C -64>	(1,192)	(2,39)	(-2,22)	(-1,21)	(-4,25)	(6,1)	(0,6)	(-30,5)	(-5,237)	(-9,8)	(-3,56)	(-8,12)	(3,22)	(-21,4)	(-14,7)	(-6,19)	
L2C -63>	(1,176)	(15,1)	(32,2)	(52,5)	(4,3)	(2,11)	(61,2)	(39,2)	(6,1)	(18,2)	(3,4)	(22,1)	(12,1)	(0,1)	(11,1)	(1,0)	
L2C -62>	(1,60)	(10,5)	(11,9)	(25,2)	(33,4)	(-1,10)	(23,1)	(18,1)	(47,1)	(62,1)	(2,7)	(37,1)	(21,1)	(43,1)	(6,2)	(3,1)	
L2C -61>	(1,62)	(13,2)	(3,4)	(12,4)	(10,3)	(38,1)	(4,1)	(54,1)	(-1,22)	(2,3)	(14,1)	(19,1)	(59,1)	(8,1)	(29,1)	(47,1)	
L2C -60>	(1,40)	(7,3)	(6,2)	(62,1)	(14,1)	(4,2)	(-1,12)	(20,2)	(18,1)	(8,1)	(-2,6)	(61,1)	(51,2)	(19,2)	(25,1)	(2,4)	
L2C -59>	(1,44)	(2,7)	(-1,9)	(12,2)	(3,3)	(61,1)	(56,1)	(60,1)	(11,1)	(53,1)	(58,1)	(42,1)	(26,1)	(20,1)	(10,1)	(4,2)	
L2C -58>	(8,4)	(37,4)	(1,44)	(9,1)	(3,4)	(54,1)	(0,1)	(60,1)	(53,2)	(-4,1)	(2,4)	(47,2)	(49,1)	(-1,5)	(42,1)	(24,1)	
L2C -57>	(53,1)	(1,28)	(37,3)	(12,2)	(2,1)	(5,2)	(29,1)	(38,1)	(-2,1)	(-1,17)	(28,2)	(-4,1)	(3,6)	(59,1)	(-5,1)	(15,1)	
L2C -56>	(9,4)	(1,40)	(54,2)	(57,2)	(53,2)	(20,2)	(-1,9)	(39,1)	(3,2)	(45,1)	(13,1)	(17,1)	(2,3)	(14,1)	(27,1)	(-5,3)	
L2C -55>	(31,2)	(1,38)	(34,4)	(29,3)	(27,2)	(2,6)	(-5,1)	(0,1)	(24,1)	(-1,5)	(56,2)	(36,1)	(-2,1)	(22,2)	(58,3)	(-4,2)	
L2C -54>	(16,1)	(36,2)	(31,1)	(1,32)	(-1,7)	(52,1)	(34,1)	(-2,1)	(2,6)	(28,1)	(6,2)	(32,2)	(5,1)	(55,1)	(24,1)	(42,1)	
L2C -53>	(36,4)	(8,13)	(54,4)	(1,37)	(9,2)	(10,4)	(18,3)	(51,2)	(52,3)	(4,3)	(0,1)	(-4,4)	(-1,7)	(2,4)	(39,1)	(-7,1)	
L2C -52>	(1,41)	(8,5)	(-2,3)	(10,3)	(18,2)	(39,1)	(11,2)	(31,1)	(-1,15)	(2,4)	(3,2)	(-5,2)	(52,1)	(6,2)	(57,1)	(50,1)	
L2C -51>	(1,52)	(8,4)	(9,2)	(-1,15)	(2,10)	(0,2)	(51,1)	(10,3)	(-4,2)	(-2,5)	(11,1)	(44,1)	(18,2)	(48,2)	(37,2)	(17,1)	
L2C -50>	(10,1)	(1,59)	(25,1)	(50,2)	(34,3)	(-2,2)	(13,1)	(53,2)	(2,6)	(-1,12)	(33,1)	(9,2)	(43,1)	(11,7)	(51,4)	(6,3)	
L2C -49>	(1,88)	(15,3)	(8,8)	(3,8)	(36,3)	(45,4)	(-1,2)	(46,1)	(-4,2)	(2,10)	(38,2)	(5,4)	(53,2)	(28,1)	(23,1)	(6,2)	
L2C -48>	(49,3)	(1,49)	(2,4)	(50,3)	(39,3)	(16,3)	(0,2)	(52,1)	(-1,12)	(37,3)	(3,4)	(9,2)	(7,1)	(-3,3)	(42,1)	(57,1)	
L2C -47>	(1,59)	(47,5)	(3,18)	(4,5)	(48,4)	(5,3)	(23,5)	(-9,2)	(18,4)	(7,2)	(26,2)	(-1,26)	(0,3)	(-2,2)	(46,1)	(2,8)	
L2C -46>	(1,55)	(0,1)	(31,5)	(9,4)	(-1,26)	(38,9)	(-3,4)	(2,10)	(10,2)	(8,8)	(27,7)	(11,3)	(15,3)	(47,7)	(29,2)	(3,2)	
L2C -45>	(7,3)	(12,4)	(-3,3)	(1,81)	(45,3)	(46,4)	(2,4)	(34,1)	(5,2)	(-1,24)	(-2,5)	(9,2)	(49,1)	(4,6)	(25,2)	(-10,1)	
L2C -44>	(1,66)	(36,2)	(22,3)	(18,2)	(12,3)	(40,2)	(44,3)	(-12,2)	(-1,23)	(2,5)	(43,4)	(5,3)	(-10,1)	(31,2)	(25,1)	(-8,1)	
L2C -43>	(1,78)	(3,7)	(29,2)	(2,3)	(37,2)	(6,2)	(42,4)	(-1,16)	(36,2)	(-12,2)	(23,4)	(47,1)	(10,2)	(-3,4)	(38,1)	(33,3)	
L2C -42>	(1,111)	(0,2)	(2,7)	(-11,3)	(9,2)	(-1,28)	(39,3)	(5,1)	(-6,4)	(-2,8)	(22,1)	(-5,5)	(6,1)	(19,2)	(23,1)	(25,2)	
L2C -41>	(14,12)	(1,115)	(13,3)	(25,4)	(12,4)	(26,4)	(2,8)	(4,2)	(42,6)	(-6,3)	(-9,9)	(38,1)	(27,2)	(5,4)	(-1,24)	(-8,3)	
L2C -40>	(1,122)	(13,7)	(3,8)	(25,9)	(9,8)	(-1,1)	(41,6)	(39,7)	(8,3)	(2,21)	(5,3)	(-2,5)	(7,8)	(33,3)	(35,3)	(-4,3)	
L2C -39>	(14,5)	(1,87)	(39,9)	(3,14)	(35,2)	(4,3)	(-9,1)	(-11,2)	(-1,28)	(2,4)	(42,1)	(9,4)	(50,1)	(0,3)	(-13,1)	(40,7)	
L2C -38>	(1,83)	(8,5)	(12,3)	(39,9)	(-1,23)	(25,6)	(2,12)	(10,5)	(3,11)	(13,4)	(19,8)	(9,6)	(7,4)	(28,4)	(11,1)	(36,3)	
L2C -37>	(25,3)	(9,1)	(16,6)	(31,4)	(1,96)	(13,6)	(12,3)	(30,5)	(55,2)	(3,11)	(-22,2)	(-1,36)	(36,8)	(2,14)	(8,3)	(11,3)	
L2C -36>	(2,30)	(38,18)	(31,1)	(1,71)	(-1,17)	(35,11)	(25,4)	(-7,4)	(11,6)	(3,8)	(36,7)	(12,5)	(15,3)	(4,6)	(8,8)	(-25,6)	
L2C -35>	(22,5)	(36,5)	(1,100)	(35,7)	(10,2)	(31,2)	(0,3)	(2,34)	(-1,30)	(17,3)	(9,2)	(-3,7)	(16,2)	(6,1)	(-2,3)	(44,2)	
L2C -34>	(13,6)	(1,111)	(3,6)	(2,8)	(-6,2)	(25,4)	(10,5)	(35,6)	(32,4)	(-3,5)	(4,1)	(-1,20)	(24,7)	(-2,6)	(11,1)	(23,1)	
L2C -33>	(14,3)	(1,105)	(32,1)	(25,7)	(-1,33)	(36,2)	(10,7)	(23,4)	(20,3)	(5,11)	(4,4)	(7,5)	(18,3)	(2,13)	(34,9)	(11,4)	
L2C -32>	(1,103)	(-1,31)	(23,3)	(11,8)	(27,4)	(2,13)	(9,9)	(32,3)	(43,1)	(-2,12)	(-21,1)	(4,6)	(-16,1)	(3,5)	(-14,2)	(31,3)	
L2C -31>	(1,136)	(10,4)	(-1,40)	(25,4)	(17,4)	(-3,1)	(16,4)	(2,19)	(7,4)	(3,12)	(4,3)	(18,11)	(15,4)	(-21,2)	(35,2)	(-4,5)	
L2C -30>	(3,8)	(1,140)	(4,11)	(2,20)	(23,11)	(22,6)	(6,3)	(9,4)	(-1,55)	(7,6)	(0,2)	(31,14)	(-4,2)	(18,22)	(29,1)	(30,3)	
L2C -29>	(1,92)	(9,19)	(23,14)	(8,9)	(3,22)	(2,25)	(30,12)	(11,7)	(-1,29)	(5,5)	(25,20)	(-3,4)	(31,5)	(26,3)	(-9,1)	(0,11)	
L2C -28>	(2,15)	(1,133)	(-3,7)	(15,4)	(29,10)	(27,14)	(0,6)	(-2,5)	(24,9)	(-11,1)	(22,11)	(16,3)	(-1,16)	(28,12)	(17,4)	(-25,2)	
L2C -27>	(25,9)	(23,7)	(1,134)	(7,5)	(9,6)	(27,5)	(10,8)	(2,17)	(15,8)	(35,3)	(11,14)	(-1,51)	(4,1)	(28,11)	(6,14)	(-2,14)	
L2C -26>	(-1,45)	(1,167)	(21,15)	(27,29)	(10,8)	(20,15)	(-9,5)	(13,8)	(2,37)	(4,29)	(6,14)	(3,18)	(-3,1)	(25,20)	(14,8)	(12,6)	
L2C -25>	(1,191)	(5,12)	(-5,7)	(20,14)	(39,4)	(24,17)	(2,16)	(6,6)	(26,24)	(-9,1)	(27,8)	(33,4)	(25,23)	(-1,22)	(-2,13)	(23,6)	
L2C -24>	(1,223)	(-2,12)	(17,6)	(4,15)	(15,8)	(13,10)	(28,12)	(29,7)	(-1,1)	(22,11)	(-3,7)	(9,5)	(41,9)	(2,33)	(25,41)	(0,4)	
L2C -23>	(3,18)	(12,8)	(13,27)	(1,171)	(-8,6)	(26,8)	(-1,37)	(23,7)	(-2,10)	(-7,10)	(2,33)	(20,2)	(25,29)	(7,12)	(24,11)	(16,6)	
L2C -22>	(1,203)	(22,12)	(10,7)	(20,17)	(18,7)	(24,13)	(23,15)	(17,8)	(30,1)	(-9,6)	(2,25)	(21,5)	(-1,60)	(8,10)	(25,18)	(-4,8)	
L2C -21>	(0,18)	(1,216)	(9,12)	(8,13)	(23,10)	(-1,35)	(20,18)	(22,19)	(2,24)	(-28,1)	(-5,17)	(7,7)	(3,13)	(18,12)	(13,6)	(21,14)	
L2C -20>	(1,240)	(-1,26)	(9,4)	(-22,7)	(18,13)	(19,10)	(4,17)	(7,5)	(-15,3)	(2,26)	(14,4)	(-39,6)	(21,13)	(-3,4)	(0,12)	(24,1)	
L2C -19>	(1,185)	(7,10)	(17,8)	(11,9)	(15,6)	(-1,68)	(5,7)	(20,14)	(2,32)	(12,1)	(18,9)	(6,10)	(-4,6)	(9,5)	(-3,6)	(0,16)	
L2C -18>	(1,209)	(-3,5)	(29,3)	(11,1)	(15,9)	(17,8)	(2,25)	(-8,10)	(3,14)	(0,12)	(7,13)	(5,8)	(-1,51)	(-4,4)	(12,5)	(14,7)	
L2C -17>	(1,213)	(21,7)	(-45,4)	(6,10)	(15,7)	(20,9)	(18,17)	(13,1)	(19,6)	(2,30)	(5,6)	(-1,81)	(4,6)	(10,11)	(44,4)	(-3,8)	
L2C -16>	(14,3)	(1,161)	(2,26)	(17,8)	(-8,4)	(-1,34)	(21,4)	(16,3)	(9,2)	(7,4)	(3,5)	(4,8)	(8,9)	(20,3)	(36,1)	(5,4)	
L2C -15>	(1,146)	(15,4)	(25,2)	(23,3)	(-1,26)	(24,3)	(8,6)	(-3,10)	(4,5)	(43,1)	(6,6)	(-2,12)	(-6,3)	(2,32)	(-5,3)	(18,6)	
L2C -14>	(16,9)	(1,208)	(3,12)	(5,10)	(2,26)	(0,5)	(30,1)	(15,11)	(11,7)	(17,3)	(8,10)	(-1,46)	(-2,5)	(14,9)	(-4,5)	(10,5)	
L2C -13>	(4,18)	(3,27)	(2,30)	(1,236)	(24,1)	(-2,20)	(9,16)	(13,9)	(11,11)	(12,13)	(14,19)	(8,13)	(10,5)	(-1,39)	(0,4)	(5,12)	
L2C -12>	(1,249)	(9,16)	(-5,8)	(8,19)	(4,23)	(7,1)	(5,10)	(-12,3)	(-1,72)	(2,46)	(11,20)	(3,24)	(-2,10)	(13,19)	(-13,3)	(-3,13)	
L2C -11>	(7,8)	(3,17)	(-1,85)	(1,253)	(11,14)	(0,11)	(12,20)	(6,16)	(8,14)	(9,12)	(2,42)	(-3,15)	(17,1)	(4,12)	(-2,11)	(-4,5)	
L2C -10>	(1,191)	(-1,47)	(12,1)	(5,12)	(-2,4)	(-6,2)	(6,10)	(3,14)	(10,7)	(4,7)	(2,32)	(11,24)	(9,8)	(-8,4)	(21,2)	(7,10)	
L2C -9>	(1,172)	(10,23)	(5,10)	(6,8)	(3,8)	(4,6)	(11,5)	(12,8)	(-27,1)	(7,3)	(8,7)	(2,53)	(9,7)	(-1,55)	(0,8)	(-2,14)	
L2C -8>	(3,8)	(1,159)	(0,8)	(-19,2)	(9,18)	(-6,1)	(12,2)	(-2,16)	(8,12)	(7,17)	(-1,42)	(2,21)	(-4,9)	(6,5)	(5,4)	(-3,6)	
L2C -7>	(1,141)	(6,14)	(-2,14)	(-4,4)	(2,13)	(8,20)	(-3,13)	(11,2)	(5,11)	(-1,55)	(0,5)	(4,9)	(-5,7)	(3,17)	(-33,1)	(7,7)	
L2C -6>	(3,19)	(1,161)	(11,4)	(-36,1)	(9,4)	(6,8)	(5,13)	(4,10)	(8,9)	(-1,80)	(2,19)	(7,48)	(0,10)	(-3,12)	(-2,14)	(-4,5)	
L2C -5>	(1,186)	(6,18)	(-21,1)	(7,4)	(4,8)	(2,28)	(13,2)	(0,245)	(-9,2)	(3,19)	(-2,15)	(-4,5)	(-3,5)	(5,18)	(-1,51)	(-5,2)	
L2C -4>	(1,204)	(-1,69)	(5,25)	(3,13)	(-2,18)	(23,1)	(8,3)	(-5,8)	(2,40)	(-4,11)	(0,16)	(-6,2)	(4,7)	(-3,12)	(29,1)	(-16,1)	
L2C -3>	(1,145)	(4,26)	(-2,19)	(0,16)	(-1,52)	(2,19)	(-11,2)	(-4,8)	(-10,2)	(-30,1)	(3,4)	(-7,1)	(5,3)	(-6,3)	(-3,13)	(6,2)	
L2C -2>	(-5,6)	(6,2)	(1,196)	(4,18)	(-11,3)	(-3,20)	(-2,50)	(3,49)	(-4,6)	(-1,199)	(-8,1)	(5,8)	(2,6)	(8,1)	(0,6)	(63,1)	
L2C -1>	(53,1)	(2,17)	(29,1)	(1,5)	(-1,144)	(-18,2)	(-23,1)	(5,1)	(-2,36)	(3,3)	(-4,4)	(4,2)	(-3,7)	(11,1)	(-5,3)	(0,1)	
L2C 0>	(-3,6)	(2,10)	(1,85)	(23,1)	(-5,3)	(6,2)	(3,3)	(-11,2)	(0,224)	(-39,1)	(4,4)	(-2,9)	(-4,4)	(-7,1)	(10,1)	(-1,35)	
L2C 1>	(-1,1)	(-3,8)	(1,156)	(6,2)	(-2,23)	(2,18)	(0,1)	(-6,3)	(-5,3)	(-14,1)	(8,1)	(3,4)	(15,1)	(-4,2)	(-7,1)	(-8,2)	
L2C 2>	(3,17)	(1,212)	(-1,46)	(2,183)	(4,6)	(-12,5)	(-10,4)	(-42,1)	(8,4)	(-3,11)	(-5,7)	(-7,2)	(-4,6)	(6,3)	(5,8)	(-14,1)	
L2C 3>	(1,179)	(4,15)	(2,36)	(-4,5)	(0,2)	(7,3)	(12,1)	(3,12)	(-7,3)	(-2,17)	(-5,9)	(6,7)	(5,3)	(20,1)	(-8,2)	(-1,33)	
L2C 4>	(-3,22)	(1,224)	(4,24)	(-22,1)	(-4,8)	(-6,17)	(9,4)	(3,29)	(0,6)	(5,10)	(2,54)	(7,7)	(-1,75)	(-5,18)	(-2,23)	(6,8)	
L2C 5>	(1,161)	(6,8)	(2,31)	(3,19)	(-5,13)	(-3,6)	(-58,2)	(-6,14)	(-8,5)	(-12,1)	(8,5)	(4,13)	(5,7)	(-4,18)	(-2,23)	(-1,56)	
L2C 6>	(3,19)	(1,191)	(-7,24)	(2,36)	(-5,11)	(-9,2)	(6,8)	(0,5)	(4,16)	(-1,64)	(-3,5)	(-2,15)	(-6,7)	(-8,5)	(-23,1)	(5,6)	
L2C 7>	(1,138)	(-3,5)	(6,2)	(-4,4)	(4,7)	(-1,46)	(-2,12)	(-6,11)	(2,16)	(-11,3)	(-8,1)	(-13,2)	(3,7)	(-9,9)	(7,4)	(-7,5)	
L2C 8>	(1,235)	(2,41)	(-2,16)	(-7,20)	(3,21)	(-9,16)	(4,9)	(-8,19)	(-63,1)	(5,9)	(0,7)	(-30,2)	(-1,66)	(-10,12)	(-11,11)	(-4,9)	
L2C 9>	(2,28)	(1,148)	(-1,66)	(-9,7)	(-8,13)	(0,3)	(21,4)	(-2,18)	(-10,1)	(-46,1)	(-11,6)	(16,3)	(-7,5)	(13,1)	(3,10)	(-13,4)	
L2C 10>	(1,153)	(-9,20)	(2,17)	(-2,9)	(6,4)	(5,4)	(-1,36)	(-10,3)	(3,3)	(25,2)	(24,4)	(4,10)	(0,5)	(-11,6)	(-3,6)	(-5,1)	
L2C 11>	(1,177)	(2,17)	(-6,9)	(-13,3)	(0,6)	(-1,63)	(-16,7)	(4,10)	(-9,8)	(6,7)	(-17,1)	(8,10)	(-52,2)	(-3,12)	(-19,5)	(-11,8)	
L2C 12>	(1,215)	(13,6)	(16,1)	(3,20)	(8,4)	(4,17)	(2,38)	(-31,5)	(-11,15)	(-13,12)	(-6,10)	(5,11)	(-2,16)	(-15,16)	(-1,64)	(-14,10)	
L2C 13>	(1,202)	(4,19)	(-21,12)	(-31,1)	(21,2)	(8,6)	(-26,12)	(-13,11)	(15,6)	(10,12)	(-12,13)	(-2,15)	(3,11)	(-14,10)	(-1,46)	(-11,7)	
L2C 14>	(-2,18)	(1,221)	(3,48)	(2,31)	(-15,10)	(-13,66)	(-11,9)	(16,8)	(6,13)	(-14,14)	(-12,18)	(-16,1)	(-10,5)	(-21,4)	(-1,83)	(20,9)	
L2C 15>	(-7,5)	(1,132)	(-2,1)	(7,3)	(6,3)	(-26,4)	(-14,17)	(5,7)	(-9,3)	(-41,7)	(17,2)	(36,2)	(2,25)	(8,11)	(-1,36)	(4,5)	
L2C 16>	(1,209)	(10,5)	(8,18)	(-3,15)	(20,3)	(-13,4)	(-27,9)	(-16,7)	(2,31)	(9,8)	(0,11)	(-5,9)	(3,13)	(-1,70)	(-17,1)	(-28,16)	
L2C 17>	(1,213)	(13,4)	(-1,39)	(-23,5)	(5,12)	(2,28)	(4,25)	(3,17)	(-27,6)	(-15,1)	(-16,6)	(-2,18)	(8,12)	(35,2)	(11,2)	(-7,5)	
L2C 18>	(17,8)	(34,1)	(-18,22)	(3,24)	(2,28)	(-20,9)	(1,242)	(-31,4)	(4,21)	(-1,58)	(-23,11)	(-27,3)	(-17,14)	(-33,3)	(-6,5)	(-19,12)	
L2C 19>	(1,162)	(5,4)	(-19,6)	(7,5)	(-14,9)	(2,22)	(-18,1)	(-16,5)	(0,6)	(3,20)	(-6,2)	(-23,11)	(-21,5)	(-1,61)	(17,3)	(18,3)	
L2C 20>	(1,195)	(5,11)	(0,16)	(6,10)	(-16,6)	(3,11)	(-34,5)	(-39,1)	(2,37)	(-24,3)	(4,7)	(-1,75)	(-35,6)	(-41,2)	(-19,12)	(-11,13)	
L2C 21>	(1,171)	(-21,6)	(-28,11)	(30,1)	(-41,8)	(-25,6)	(-11,9)	(-23,8)	(-40,6)	(2,18)	(10,4)	(-7,6)	(-29,9)	(-1,66)	(-20,14)	(-15,6)	
L2C 22>	(-19,7)	(-1,39)	(-3,16)	(9,4)	(1,149)	(-26,11)	(-21,41)	(5,4)	(0,5)	(2,15)	(-25,1)	(-22,6)	(12,3)	(-2,7)	(-8,6)	(-13,4)	
L2C 23>	(1,136)	(-1,74)	(-25,5)	(-22,38)	(7,6)	(4,20)	(5,7)	(-2,25)	(-24,12)	(3,22)	(2,36)	(-23,17)	(-4,1)	(0,3)	(-21,10)	(9,2)	
L2C 24>	(1,160)	(-1,37)	(-25,15)	(-15,6)	(2,26)	(-23,22)	(-3,10)	(-21,1)	(8,3)	(0,8)	(-2,12)	(3,3)	(12,2)	(-10,7)	(-20,3)	(-24,13)	
L2C 25>	(-26,20)	(-5,26)	(2,21)	(1,144)	(0,9)	(-1,17)	(-7,8)	(-24,41)	(8,12)	(18,3)	(-25,10)	(-36,5)	(-19,8)	(-2,21)	(-3,8)	(-23,1)	
L2C 26>	(1,108)	(-47,13)	(-5,5)	(-27,8)	(-32,5)	(5,6)	(7,1)	(-18,5)	(2,19)	(-12,7)	(-3,6)	(-1,55)	(-25,21)	(-2,4)	(-23,7)	(8,2)	
L2C 27>	(-26,31)	(-23,8)	(-27,6)	(-1,29)	(0,1)	(-2,15)	(-31,4)	(1,120)	(-29,10)	(-20,2)	(-30,2)	(14,6)	(-28,9)	(5,3)	(7,3)	(3,3)	
L2C 28>	(-1,36)	(-22,3)	(-15,4)	(-27,26)	(-20,1)	(-11,2)	(1,100)	(-4,6)	(-7,2)	(13,2)	(4,7)	(-32,7)	(2,12)	(-25,7)	(6,2)	(8,3)	
L2C 29>	(1,81)	(-28,15)	(-1,44)	(-40,1)	(-3,7)	(10,2)	(4,3)	(-30,5)	(-5,9)	(8,4)	(3,9)	(-23,8)	(-4,4)	(-13,2)	(-29,6)	(-25,4)	
L2C 30>	(4,10)	(-11,5)	(1,74)	(3,9)	(-1,23)	(-4,5)	(-13,1)	(-29,5)	(2,6)	(-19,5)	(-40,5)	(-25,3)	(-21,5)	(-59,2)	(-3,11)	(0,7)	
L2C 31>	(-31,6)	(1,96)	(7,9)	(-33,4)	(-22,6)	(-34,4)	(-29,3)	(-3,4)	(2,16)	(-24,5)	(-7,6)	(17,1)	(-1,24)	(-27,1)	(-30,24)	(-20,3)	
L2C 32>	(1,71)	(-31,15)	(-17,3)	(-33,10)	(-26,4)	(-4,7)	(-11,1)	(0,3)	(2,13)	(-1,34)	(-23,1)	(-32,3)	(-3,5)	(-2,10)	(-22,2)	(-6,5)	
L2C 33>	(-8,2)	(-31,8)	(-2,9)	(1,65)	(-35,8)	(-38,2)	(-4,5)	(-33,4)	(-57,2)	(17,2)	(14,4)	(-3,4)	(-30,3)	(-7,1)	(-1,29)	(2,13)	
L2C 34>	(1,87)	(-35,5)	(-26,3)	(2,9)	(0,1)	(-16,3)	(-33,9)	(3,4)	(-18,2)	(-23,7)	(-4,4)	(-38,6)	(-39,4)	(-1,25)	(18,2)	(-17,2)	
L2C 35>	(1,89)	(-36,13)	(-35,12)	(-8,1)	(-1,20)	(-34,7)	(5,1)	(-42,1)	(2,17)	(3,2)	(-37,1)	(-4,2)	(-51,1)	(-7,1)	(-11,2)	(-13,1)	
L2C 36>	(1,88)	(-35,34)	(-1,28)	(-2,1)	(-5,1)	(-36,8)	(-42,2)	(-25,3)	(18,2)	(-41,3)	(-38,6)	(-31,8)	(-28,1)	(-12,1)	(-33,1)	(-4,8)	
L2C 37>	(1,84)	(-36,12)	(-3,6)	(-38,2)	(-1,23)	(-22,2)	(0,1)	(3,5)	(-2,6)	(6,4)	(-19,1)	(7,2)	(-35,3)	(-9,1)	(-34,2)	(-13,1)	
L2C 38>	(1,57)	(-3,3)	(8,2)	(-9,18)	(-2,3)	(-8,2)	(-11,2)	(0,2)	(16,2)	(-24,3)	(-35,7)	(-45,1)	(2,5)	(-1,23)	(-4,2)	(-7,1)	
L2C 39>	(-8,3)	(14,3)	(-38,3)	(1,71)	(-49,2)	(-44,2)	(-4,2)	(-39,8)	(-27,2)	(-37,2)	(-2,3)	(-1,20)	(-3,6)	(0,2)	(3,3)	(-6,1)	
L2C 40>	(1,43)	(-4,4)	(-33,4)	(6,2)	(-6,2)	(-1,14)	(-39,5)	(2,14)	(-45,1)	(-29,2)	(-2,7)	(-9,1)	(-42,2)	(-3,1)	(-20,1)	(-30,2)	
L2C 41>	(-40,18)	(1,70)	(5,3)	(-43,1)	(-7,3)	(-34,1)	(-41,2)	(-44,2)	(2,5)	(0,3)	(-13,1)	(3,3)	(-39,1)	(-1,21)	(-42,2)	(-9,2)	
L2C 42>	(-42,1)	(1,70)	(-57,1)	(-40,2)	(-23,2)	(-39,2)	(-52,2)	(-41,4)	(-33,1)	(-1,21)	(2,2)	(-10,2)	(-24,2)	(3,1)	(-43,1)	(4,2)	
L2C 43>	(1,38)	(-37,2)	(-23,5)	(2,7)	(-7,4)	(-11,2)	(-9,3)	(-41,2)	(-42,2)	(-1,16)	(-48,1)	(-36,1)	(-19,4)	(-29,2)	(-24,5)	(-50,1)	
L2C 44>	(-43,4)	(-44,1)	(9,1)	(2,15)	(-1,11)	(-26,2)	(-6,1)	(1,24)	(-16,1)	(-17,1)	(-5,1)	(12,1)	(-24,5)	(-10,4)	(-38,1)	(-13,1)	
L2C 45>	(-48,1)	(0,2)	(-45,6)	(-62,8)	(1,35)	(4,3)	(-58,1)	(-5,1)	(-2,5)	(-42,3)	(-1,15)	(-22,1)	(-35,1)	(2,2)	(-33,1)	(-14,1)	
L2C 46>	(-51,2)	(-46,1)	(1,37)	(8,3)	(-26,1)	(-44,1)	(12,1)	(-1,14)	(-21,1)	(2,4)	(-24,1)	(-43,3)	(-11,1)	(-45,3)	(-50,2)	(-34,2)	
L2C 47>	(1,47)	(2,4)	(0,6)	(-56,1)	(-54,2)	(-7,2)	(-1,17)	(-48,1)	(-21,1)	(14,1)	(-37,2)	(-8,3)	(-46,3)	(-2,4)	(-18,1)	(-22,1)	
L2C 48>	(1,48)	(-48,1)	(-29,2)	(-1,20)	(-28,2)	(-19,1)	(-22,1)	(5,1)	(-34,1)	(-4,4)	(-33,1)	(-17,1)	(-43,1)	(-16,1)	(-49,1)	(-44,1)	
L2C 49>	(1,31)	(-48,2)	(4,2)	(-21,2)	(-10,3)	(-1,12)	(-11,2)	(-31,2)	(5,1)	(-49,1)	(3,1)	(-39,1)	(-28,1)	(-3,2)	(-15,1)	(-9,2)	
L2C 50>	(-28,3)	(1,23)	(2,3)	(-51,1)	(-27,6)	(-25,2)	(-47,1)	(4,1)	(-45,4)	(-48,1)	(-29,2)	(-4,1)	(-3,2)	(-22,1)	(-37,1)	(-6,2)	
L2C 51>	(-49,9)	(-50,7)	(-58,1)	(1,29)	(-51,1)	(0,1)	(2,3)	(-1,9)	(-7,1)	(-30,1)	(-13,1)	(-40,1)	(12,2)	(-3,1)	(-36,1)	(-8,1)	
L2C 52>	(1,22)	(-7,2)	(-53,2)	(-1,6)	(2,2)	(-45,1)	(-48,1)	(-15,1)	(-43,1)	(-40,1)	(-31,1)	(-2,1)	(-21,1)	(-8,1)	(1,0)	(1,0)	
L2C 53>	(-39,1)	(-62,2)	(-23,2)	(-2,4)	(2,2)	(1,11)	(-27,1)	(-8,1)	(-5,1)	(-54,5)	(-55,2)	(-22,1)	(-1,4)	(-11,1)	(-3,4)	(-61,1)	
L2C 54>	(-56,2)	(-62,2)	(-55,2)	(1,16)	(-57,1)	(-38,1)	(-7,1)	(-6,2)	(-49,2)	(6,1)	(-1,4)	(-31,1)	(-33,1)	(-63,1)	(-53,1)	(-5,1)	
L2C 55>	(1,9)	(-41,1)	(-1,6)	(3,1)	(-54,2)	(-25,1)	(-2,2)	(-17,1)	(-53,1)	(-62,1)	(-61,1)	(-57,1)	(1,0)	(1,0)	(1,0)	(1,0)	
L2C 56>	(1,12)	(-42,4)	(-1,12)	(-4,1)	(-54,1)	(-53,1)	(-12,1)	(-55,2)	(-2,2)	(-18,1)	(-36,3)	(-41,2)	(-63,2)	(-60,3)	(-48,1)	(-43,1)	
L2C 57>	(-47,4)	(-49,3)	(-37,3)	(-61,3)	(1,7)	(-1,3)	(-21,8)	(4,1)	(3,1)	(2,1)	(-19,1)	(-63,2)	(-3,1)	(-2,3)	(-17,1)	(-50,1)	
L2C 58>	(-49,3)	(-20,3)	(-1,3)	(1,10)	(-9,1)	(-63,1)	(-60,2)	(3,2)	(2,1)	(-59,1)	(-32,1)	(-31,1)	(-11,1)	(-50,1)	(-3,1)	(-51,1)	
L2C 59>	(-61,4)	(1,9)	(-12,3)	(-21,4)	(-3,2)	(-9,1)	(-14,2)	(-22,2)	(-2,4)	(-59,1)	(-8,1)	(-1,2)	(-11,1)	(2,1)	(-19,1)	(-31,1)	
L2C 60>	(-49,2)	(1,2)	(-1,4)	(-3,2)	(-27,1)	(-26,1)	(-19,3)	(-59,1)	(-5,1)	(-20,1)	(-31,1)	(2,1)	(-41,1)	(1,0)	(1,0)	(1,0)	
L2C 61>	(-49,4)	(1,8)	(-59,1)	(-60,2)	(0,1)	(-1,3)	(2,3)	(-48,1)	(1,0)	(1,0)	(1,0)	(1,0)	(1,0)	(1,0)	(1,0)	(1,0)	
L2C 62>	(1,5)	(-61,4)	(-1,2)	(-63,1)	(1,0)	(1,0)	(1,0)	(1,0)	(1,0)	(1,0)	(1,0)	(1,0)	(1,0)	(1,0)	(1,0)	(1,0)	
L2C 63>	(-1,2)	(-8,1)	(-2,2)	(-4,1)	(1,0)	(1,0)	(1,0)	(1,0)	(1,0)	(1,0)	(1,0)	(1,0)	(1,0)	(1,0)	(1,0)	(1,0)	

DRAM Statistics
 CHANNEL 0
 RQ ROW_BUFFER_HIT:      59139  ROW_BUFFER_MISS:      63228
 DBUS_CONGESTED:      81572
 WQ ROW_BUFFER_HIT:        970  ROW_BUFFER_MISS:       6766  FULL:          0

 AVG_CONGESTED_CYCLE: 6
