
*** ChampSim Multicore Out-of-Order Simulator ***

Warmup Instructions: 1000000
Simulation Instructions: 10000000
Number of CPUs: 1
LLC sets: 2048
LLC ways: 16
Off-chip DRAM Size: 4096 MB Channels: 1 Width: 64-bit Data Rate: 3200 MT/s

CPU 0 runs /home/virtualcse/Data-Prefetching/ChampSim/dpc3_traces/603.bwaves_s-1080B.champsimtrace.xz
Ultra pref. initializing...
Ultra pref. initialized
Ultra pref. initializing...
Ultra pref. initialized

Warmup complete CPU 0 instructions: 1000001 cycles: 336191 (Simulation time: 0 hr 0 min 2 sec) 

Heartbeat CPU 0 instructions: 10000000 cycles: 4579811 heartbeat IPC: 2.1835 cumulative IPC: 2.12083 (Simulation time: 0 hr 0 min 12 sec) 
Finished CPU 0 instructions: 10000001 cycles: 4713365 cumulative IPC: 2.12163 (Simulation time: 0 hr 0 min 14 sec) 

CPU 0 Branch Prediction Accuracy: 94.0847% MPKI: 6.7365 Average ROB Occupancy at Mispredict: 83.1978

ChampSim completed all CPUs

Region of Interest Statistics

CPU 0 cumulative IPC: 2.12163 instructions: 10000001 cycles: 4713365
L1D TOTAL     ACCESS:    3084699  HIT:    3048635  MISS:      36064
L1D LOAD      ACCESS:    1089596  HIT:    1089445  MISS:        151
L1D RFO       ACCESS:     635052  HIT:     605197  MISS:      29855
L1D PREFETCH  ACCESS:    1360051  HIT:    1353993  MISS:       6058
L1D WRITEBACK ACCESS:          0  HIT:          0  MISS:          0
L1D PREFETCH  REQUESTED:   19086981  ISSUED:   15165445  USEFUL:       4243  USELESS:       2049
L1D AVERAGE MISS LATENCY: 97.2885 cycles
L1I TOTAL     ACCESS:     566483  HIT:     566483  MISS:          0
L1I LOAD      ACCESS:     566483  HIT:     566483  MISS:          0
L1I RFO       ACCESS:          0  HIT:          0  MISS:          0
L1I PREFETCH  ACCESS:          0  HIT:          0  MISS:          0
L1I WRITEBACK ACCESS:          0  HIT:          0  MISS:          0
L1I PREFETCH  REQUESTED:          0  ISSUED:          0  USEFUL:          0  USELESS:          0
L1I AVERAGE MISS LATENCY: -nan cycles
L2C TOTAL     ACCESS:     117223  HIT:      81405  MISS:      35818
L2C LOAD      ACCESS:        151  HIT:        100  MISS:         51
L2C RFO       ACCESS:      29446  HIT:       7926  MISS:      21520
L2C PREFETCH  ACCESS:      55363  HIT:      41116  MISS:      14247
L2C WRITEBACK ACCESS:      32263  HIT:      32263  MISS:          0
L2C PREFETCH  REQUESTED:      88582  ISSUED:      66194  USEFUL:       8137  USELESS:       5360
L2C AVERAGE MISS LATENCY: 140.365 cycles
LLC TOTAL     ACCESS:      61412  HIT:      25693  MISS:      35719
LLC LOAD      ACCESS:         51  HIT:          0  MISS:         51
LLC RFO       ACCESS:      21449  HIT:          0  MISS:      21449
LLC PREFETCH  ACCESS:      14319  HIT:        100  MISS:      14219
LLC WRITEBACK ACCESS:      25593  HIT:      25593  MISS:          0
LLC PREFETCH  REQUESTED:          0  ISSUED:          0  USEFUL:          0  USELESS:       1382
LLC AVERAGE MISS LATENCY: 110.291 cycles
Major fault: 0 Minor fault: 598

L1D -512>	(1,2)	(0,33)	(3,1)	(-20,1)	(2,1)	(-1,0)	(-60,0)	(25,14)	(100,6)	(50,116)	(75,20)	(125,7)	(1,0)	(1,0)	(1,0)	(1,0)	
L1D -511>	(1,0)	(1,0)	(1,0)	(1,0)	(1,0)	(1,0)	(1,0)	(1,0)	(1,0)	(1,0)	(1,0)	(1,0)	(1,0)	(1,0)	(1,0)	(1,0)	
L1D -510>	(1,0)	(1,0)	(1,0)	(1,0)	(1,0)	(1,0)	(1,0)	(1,0)	(1,0)	(1,0)	(1,0)	(1,0)	(1,0)	(1,0)	(1,0)	(1,0)	
L1D -509>	(1,0)	(1,0)	(1,0)	(1,0)	(1,0)	(1,0)	(1,0)	(1,0)	(1,0)	(1,0)	(1,0)	(1,0)	(1,0)	(1,0)	(1,0)	(1,0)	
L1D -508>	(1,0)	(1,0)	(1,0)	(1,0)	(1,0)	(1,0)	(1,0)	(1,0)	(1,0)	(1,0)	(1,0)	(1,0)	(1,0)	(1,0)	(1,0)	(1,0)	
L1D -507>	(1,0)	(1,0)	(1,0)	(1,0)	(1,0)	(1,0)	(1,0)	(1,0)	(1,0)	(1,0)	(1,0)	(1,0)	(1,0)	(1,0)	(1,0)	(1,0)	
L1D -506>	(1,0)	(1,0)	(1,0)	(1,0)	(1,0)	(1,0)	(1,0)	(1,0)	(1,0)	(1,0)	(1,0)	(1,0)	(1,0)	(1,0)	(1,0)	(1,0)	
L1D -505>	(2,1)	(1,0)	(1,0)	(1,0)	(1,0)	(1,0)	(1,0)	(1,0)	(1,0)	(1,0)	(1,0)	(1,0)	(1,0)	(1,0)	(1,0)	(1,0)	
L1D -504>	(1,0)	(1,0)	(1,0)	(1,0)	(1,0)	(1,0)	(1,0)	(1,0)	(1,0)	(1,0)	(1,0)	(1,0)	(1,0)	(1,0)	(1,0)	(1,0)	
L1D -503>	(1,0)	(1,0)	(1,0)	(1,0)	(1,0)	(1,0)	(1,0)	(1,0)	(1,0)	(1,0)	(1,0)	(1,0)	(1,0)	(1,0)	(1,0)	(1,0)	
L1D -502>	(1,0)	(1,0)	(1,0)	(1,0)	(1,0)	(1,0)	(1,0)	(1,0)	(1,0)	(1,0)	(1,0)	(1,0)	(1,0)	(1,0)	(1,0)	(1,0)	
L1D -501>	(1,0)	(1,0)	(1,0)	(1,0)	(1,0)	(1,0)	(1,0)	(1,0)	(1,0)	(1,0)	(1,0)	(1,0)	(1,0)	(1,0)	(1,0)	(1,0)	
L1D -500>	(1,0)	(1,0)	(1,0)	(1,0)	(1,0)	(1,0)	(1,0)	(1,0)	(1,0)	(1,0)	(1,0)	(1,0)	(1,0)	(1,0)	(1,0)	(1,0)	
L1D -499>	(1,0)	(1,0)	(1,0)	(1,0)	(1,0)	(1,0)	(1,0)	(1,0)	(1,0)	(1,0)	(1,0)	(1,0)	(1,0)	(1,0)	(1,0)	(1,0)	
L1D -498>	(1,0)	(1,0)	(1,0)	(1,0)	(1,0)	(1,0)	(1,0)	(1,0)	(1,0)	(1,0)	(1,0)	(1,0)	(1,0)	(1,0)	(1,0)	(1,0)	
L1D -497>	(1,0)	(1,0)	(1,0)	(1,0)	(1,0)	(1,0)	(1,0)	(1,0)	(1,0)	(1,0)	(1,0)	(1,0)	(1,0)	(1,0)	(1,0)	(1,0)	
L1D -496>	(1,0)	(1,0)	(1,0)	(1,0)	(1,0)	(1,0)	(1,0)	(1,0)	(1,0)	(1,0)	(1,0)	(1,0)	(1,0)	(1,0)	(1,0)	(1,0)	
L1D -495>	(2,1)	(1,0)	(1,0)	(1,0)	(1,0)	(1,0)	(1,0)	(1,0)	(1,0)	(1,0)	(1,0)	(1,0)	(1,0)	(1,0)	(1,0)	(1,0)	
L1D -494>	(1,0)	(1,0)	(1,0)	(1,0)	(1,0)	(1,0)	(1,0)	(1,0)	(1,0)	(1,0)	(1,0)	(1,0)	(1,0)	(1,0)	(1,0)	(1,0)	
L1D -493>	(1,0)	(1,0)	(1,0)	(1,0)	(1,0)	(1,0)	(1,0)	(1,0)	(1,0)	(1,0)	(1,0)	(1,0)	(1,0)	(1,0)	(1,0)	(1,0)	
L1D -492>	(1,0)	(1,0)	(1,0)	(1,0)	(1,0)	(1,0)	(1,0)	(1,0)	(1,0)	(1,0)	(1,0)	(1,0)	(1,0)	(1,0)	(1,0)	(1,0)	
L1D -491>	(1,0)	(1,0)	(1,0)	(1,0)	(1,0)	(1,0)	(1,0)	(1,0)	(1,0)	(1,0)	(1,0)	(1,0)	(1,0)	(1,0)	(1,0)	(1,0)	
L1D -490>	(1,0)	(1,0)	(1,0)	(1,0)	(1,0)	(1,0)	(1,0)	(1,0)	(1,0)	(1,0)	(1,0)	(1,0)	(1,0)	(1,0)	(1,0)	(1,0)	
L1D -489>	(1,0)	(1,0)	(1,0)	(1,0)	(1,0)	(1,0)	(1,0)	(1,0)	(1,0)	(1,0)	(1,0)	(1,0)	(1,0)	(1,0)	(1,0)	(1,0)	
L1D -488>	(1,0)	(1,0)	(1,0)	(1,0)	(1,0)	(1,0)	(1,0)	(1,0)	(1,0)	(1,0)	(1,0)	(1,0)	(1,0)	(1,0)	(1,0)	(1,0)	
L1D -487>	(1,0)	(1,0)	(1,0)	(1,0)	(1,0)	(1,0)	(1,0)	(1,0)	(1,0)	(1,0)	(1,0)	(1,0)	(1,0)	(1,0)	(1,0)	(1,0)	
L1D -486>	(1,0)	(1,0)	(1,0)	(1,0)	(1,0)	(1,0)	(1,0)	(1,0)	(1,0)	(1,0)	(1,0)	(1,0)	(1,0)	(1,0)	(1,0)	(1,0)	
L1D -485>	(1,0)	(1,0)	(1,0)	(1,0)	(1,0)	(1,0)	(1,0)	(1,0)	(1,0)	(1,0)	(1,0)	(1,0)	(1,0)	(1,0)	(1,0)	(1,0)	
L1D -484>	(1,0)	(1,0)	(1,0)	(1,0)	(1,0)	(1,0)	(1,0)	(1,0)	(1,0)	(1,0)	(1,0)	(1,0)	(1,0)	(1,0)	(1,0)	(1,0)	
L1D -483>	(1,0)	(1,0)	(1,0)	(1,0)	(1,0)	(1,0)	(1,0)	(1,0)	(1,0)	(1,0)	(1,0)	(1,0)	(1,0)	(1,0)	(1,0)	(1,0)	
L1D -482>	(1,0)	(1,0)	(1,0)	(1,0)	(1,0)	(1,0)	(1,0)	(1,0)	(1,0)	(1,0)	(1,0)	(1,0)	(1,0)	(1,0)	(1,0)	(1,0)	
L1D -481>	(1,0)	(1,0)	(1,0)	(1,0)	(1,0)	(1,0)	(1,0)	(1,0)	(1,0)	(1,0)	(1,0)	(1,0)	(1,0)	(1,0)	(1,0)	(1,0)	
L1D -480>	(1,0)	(1,0)	(1,0)	(1,0)	(1,0)	(1,0)	(1,0)	(1,0)	(1,0)	(1,0)	(1,0)	(1,0)	(1,0)	(1,0)	(1,0)	(1,0)	
L1D -479>	(1,0)	(1,0)	(1,0)	(1,0)	(1,0)	(1,0)	(1,0)	(1,0)	(1,0)	(1,0)	(1,0)	(1,0)	(1,0)	(1,0)	(1,0)	(1,0)	
L1D -478>	(1,0)	(1,0)	(1,0)	(1,0)	(1,0)	(1,0)	(1,0)	(1,0)	(1,0)	(1,0)	(1,0)	(1,0)	(1,0)	(1,0)	(1,0)	(1,0)	
L1D -477>	(1,0)	(1,0)	(1,0)	(1,0)	(1,0)	(1,0)	(1,0)	(1,0)	(1,0)	(1,0)	(1,0)	(1,0)	(1,0)	(1,0)	(1,0)	(1,0)	
L1D -476>	(1,0)	(1,0)	(1,0)	(1,0)	(1,0)	(1,0)	(1,0)	(1,0)	(1,0)	(1,0)	(1,0)	(1,0)	(1,0)	(1,0)	(1,0)	(1,0)	
L1D -475>	(1,0)	(1,0)	(1,0)	(1,0)	(1,0)	(1,0)	(1,0)	(1,0)	(1,0)	(1,0)	(1,0)	(1,0)	(1,0)	(1,0)	(1,0)	(1,0)	
L1D -474>	(1,0)	(1,0)	(1,0)	(1,0)	(1,0)	(1,0)	(1,0)	(1,0)	(1,0)	(1,0)	(1,0)	(1,0)	(1,0)	(1,0)	(1,0)	(1,0)	
L1D -473>	(1,0)	(1,0)	(1,0)	(1,0)	(1,0)	(1,0)	(1,0)	(1,0)	(1,0)	(1,0)	(1,0)	(1,0)	(1,0)	(1,0)	(1,0)	(1,0)	
L1D -472>	(1,0)	(1,0)	(1,0)	(1,0)	(1,0)	(1,0)	(1,0)	(1,0)	(1,0)	(1,0)	(1,0)	(1,0)	(1,0)	(1,0)	(1,0)	(1,0)	
L1D -471>	(1,0)	(1,0)	(1,0)	(1,0)	(1,0)	(1,0)	(1,0)	(1,0)	(1,0)	(1,0)	(1,0)	(1,0)	(1,0)	(1,0)	(1,0)	(1,0)	
L1D -470>	(1,0)	(1,0)	(1,0)	(1,0)	(1,0)	(1,0)	(1,0)	(1,0)	(1,0)	(1,0)	(1,0)	(1,0)	(1,0)	(1,0)	(1,0)	(1,0)	
L1D -469>	(1,0)	(1,0)	(1,0)	(1,0)	(1,0)	(1,0)	(1,0)	(1,0)	(1,0)	(1,0)	(1,0)	(1,0)	(1,0)	(1,0)	(1,0)	(1,0)	
L1D -468>	(1,0)	(1,0)	(1,0)	(1,0)	(1,0)	(1,0)	(1,0)	(1,0)	(1,0)	(1,0)	(1,0)	(1,0)	(1,0)	(1,0)	(1,0)	(1,0)	
L1D -467>	(1,0)	(1,0)	(1,0)	(1,0)	(1,0)	(1,0)	(1,0)	(1,0)	(1,0)	(1,0)	(1,0)	(1,0)	(1,0)	(1,0)	(1,0)	(1,0)	
L1D -466>	(1,0)	(1,0)	(1,0)	(1,0)	(1,0)	(1,0)	(1,0)	(1,0)	(1,0)	(1,0)	(1,0)	(1,0)	(1,0)	(1,0)	(1,0)	(1,0)	
L1D -465>	(1,0)	(1,0)	(1,0)	(1,0)	(1,0)	(1,0)	(1,0)	(1,0)	(1,0)	(1,0)	(1,0)	(1,0)	(1,0)	(1,0)	(1,0)	(1,0)	
L1D -464>	(1,0)	(1,0)	(1,0)	(1,0)	(1,0)	(1,0)	(1,0)	(1,0)	(1,0)	(1,0)	(1,0)	(1,0)	(1,0)	(1,0)	(1,0)	(1,0)	
L1D -463>	(1,0)	(1,0)	(1,0)	(1,0)	(1,0)	(1,0)	(1,0)	(1,0)	(1,0)	(1,0)	(1,0)	(1,0)	(1,0)	(1,0)	(1,0)	(1,0)	
L1D -462>	(1,0)	(1,0)	(1,0)	(1,0)	(1,0)	(1,0)	(1,0)	(1,0)	(1,0)	(1,0)	(1,0)	(1,0)	(1,0)	(1,0)	(1,0)	(1,0)	
L1D -461>	(1,0)	(1,0)	(1,0)	(1,0)	(1,0)	(1,0)	(1,0)	(1,0)	(1,0)	(1,0)	(1,0)	(1,0)	(1,0)	(1,0)	(1,0)	(1,0)	
L1D -460>	(1,0)	(1,0)	(1,0)	(1,0)	(1,0)	(1,0)	(1,0)	(1,0)	(1,0)	(1,0)	(1,0)	(1,0)	(1,0)	(1,0)	(1,0)	(1,0)	
L1D -459>	(1,0)	(1,0)	(1,0)	(1,0)	(1,0)	(1,0)	(1,0)	(1,0)	(1,0)	(1,0)	(1,0)	(1,0)	(1,0)	(1,0)	(1,0)	(1,0)	
L1D -458>	(1,0)	(1,0)	(1,0)	(1,0)	(1,0)	(1,0)	(1,0)	(1,0)	(1,0)	(1,0)	(1,0)	(1,0)	(1,0)	(1,0)	(1,0)	(1,0)	
L1D -457>	(1,0)	(1,0)	(1,0)	(1,0)	(1,0)	(1,0)	(1,0)	(1,0)	(1,0)	(1,0)	(1,0)	(1,0)	(1,0)	(1,0)	(1,0)	(1,0)	
L1D -456>	(1,0)	(1,0)	(1,0)	(1,0)	(1,0)	(1,0)	(1,0)	(1,0)	(1,0)	(1,0)	(1,0)	(1,0)	(1,0)	(1,0)	(1,0)	(1,0)	
L1D -455>	(1,0)	(1,0)	(1,0)	(1,0)	(1,0)	(1,0)	(1,0)	(1,0)	(1,0)	(1,0)	(1,0)	(1,0)	(1,0)	(1,0)	(1,0)	(1,0)	
L1D -454>	(1,0)	(1,0)	(1,0)	(1,0)	(1,0)	(1,0)	(1,0)	(1,0)	(1,0)	(1,0)	(1,0)	(1,0)	(1,0)	(1,0)	(1,0)	(1,0)	
L1D -453>	(1,0)	(1,0)	(1,0)	(1,0)	(1,0)	(1,0)	(1,0)	(1,0)	(1,0)	(1,0)	(1,0)	(1,0)	(1,0)	(1,0)	(1,0)	(1,0)	
L1D -452>	(1,0)	(1,0)	(1,0)	(1,0)	(1,0)	(1,0)	(1,0)	(1,0)	(1,0)	(1,0)	(1,0)	(1,0)	(1,0)	(1,0)	(1,0)	(1,0)	
L1D -451>	(1,0)	(1,0)	(1,0)	(1,0)	(1,0)	(1,0)	(1,0)	(1,0)	(1,0)	(1,0)	(1,0)	(1,0)	(1,0)	(1,0)	(1,0)	(1,0)	
L1D -450>	(1,0)	(1,0)	(1,0)	(1,0)	(1,0)	(1,0)	(1,0)	(1,0)	(1,0)	(1,0)	(1,0)	(1,0)	(1,0)	(1,0)	(1,0)	(1,0)	
L1D -449>	(2,1)	(1,0)	(1,0)	(1,0)	(1,0)	(1,0)	(1,0)	(1,0)	(1,0)	(1,0)	(1,0)	(1,0)	(1,0)	(1,0)	(1,0)	(1,0)	
L1D -448>	(1,0)	(1,0)	(1,0)	(1,0)	(1,0)	(1,0)	(1,0)	(1,0)	(1,0)	(1,0)	(1,0)	(1,0)	(1,0)	(1,0)	(1,0)	(1,0)	
L1D -447>	(1,0)	(1,0)	(1,0)	(1,0)	(1,0)	(1,0)	(1,0)	(1,0)	(1,0)	(1,0)	(1,0)	(1,0)	(1,0)	(1,0)	(1,0)	(1,0)	
L1D -446>	(1,0)	(1,0)	(1,0)	(1,0)	(1,0)	(1,0)	(1,0)	(1,0)	(1,0)	(1,0)	(1,0)	(1,0)	(1,0)	(1,0)	(1,0)	(1,0)	
L1D -445>	(1,0)	(1,0)	(1,0)	(1,0)	(1,0)	(1,0)	(1,0)	(1,0)	(1,0)	(1,0)	(1,0)	(1,0)	(1,0)	(1,0)	(1,0)	(1,0)	
L1D -444>	(1,0)	(1,0)	(1,0)	(1,0)	(1,0)	(1,0)	(1,0)	(1,0)	(1,0)	(1,0)	(1,0)	(1,0)	(1,0)	(1,0)	(1,0)	(1,0)	
L1D -443>	(1,0)	(1,0)	(1,0)	(1,0)	(1,0)	(1,0)	(1,0)	(1,0)	(1,0)	(1,0)	(1,0)	(1,0)	(1,0)	(1,0)	(1,0)	(1,0)	
L1D -442>	(1,0)	(1,0)	(1,0)	(1,0)	(1,0)	(1,0)	(1,0)	(1,0)	(1,0)	(1,0)	(1,0)	(1,0)	(1,0)	(1,0)	(1,0)	(1,0)	
L1D -441>	(1,0)	(1,0)	(1,0)	(1,0)	(1,0)	(1,0)	(1,0)	(1,0)	(1,0)	(1,0)	(1,0)	(1,0)	(1,0)	(1,0)	(1,0)	(1,0)	
L1D -440>	(2,1)	(1,0)	(1,0)	(1,0)	(1,0)	(1,0)	(1,0)	(1,0)	(1,0)	(1,0)	(1,0)	(1,0)	(1,0)	(1,0)	(1,0)	(1,0)	
L1D -439>	(1,0)	(1,0)	(1,0)	(1,0)	(1,0)	(1,0)	(1,0)	(1,0)	(1,0)	(1,0)	(1,0)	(1,0)	(1,0)	(1,0)	(1,0)	(1,0)	
L1D -438>	(1,0)	(1,0)	(1,0)	(1,0)	(1,0)	(1,0)	(1,0)	(1,0)	(1,0)	(1,0)	(1,0)	(1,0)	(1,0)	(1,0)	(1,0)	(1,0)	
L1D -437>	(1,0)	(1,0)	(1,0)	(1,0)	(1,0)	(1,0)	(1,0)	(1,0)	(1,0)	(1,0)	(1,0)	(1,0)	(1,0)	(1,0)	(1,0)	(1,0)	
L1D -436>	(1,0)	(1,0)	(1,0)	(1,0)	(1,0)	(1,0)	(1,0)	(1,0)	(1,0)	(1,0)	(1,0)	(1,0)	(1,0)	(1,0)	(1,0)	(1,0)	
L1D -435>	(1,0)	(1,0)	(1,0)	(1,0)	(1,0)	(1,0)	(1,0)	(1,0)	(1,0)	(1,0)	(1,0)	(1,0)	(1,0)	(1,0)	(1,0)	(1,0)	
L1D -434>	(1,0)	(1,0)	(1,0)	(1,0)	(1,0)	(1,0)	(1,0)	(1,0)	(1,0)	(1,0)	(1,0)	(1,0)	(1,0)	(1,0)	(1,0)	(1,0)	
L1D -433>	(1,0)	(1,0)	(1,0)	(1,0)	(1,0)	(1,0)	(1,0)	(1,0)	(1,0)	(1,0)	(1,0)	(1,0)	(1,0)	(1,0)	(1,0)	(1,0)	
L1D -432>	(1,0)	(1,0)	(1,0)	(1,0)	(1,0)	(1,0)	(1,0)	(1,0)	(1,0)	(1,0)	(1,0)	(1,0)	(1,0)	(1,0)	(1,0)	(1,0)	
L1D -431>	(1,0)	(1,0)	(1,0)	(1,0)	(1,0)	(1,0)	(1,0)	(1,0)	(1,0)	(1,0)	(1,0)	(1,0)	(1,0)	(1,0)	(1,0)	(1,0)	
L1D -430>	(1,0)	(1,0)	(1,0)	(1,0)	(1,0)	(1,0)	(1,0)	(1,0)	(1,0)	(1,0)	(1,0)	(1,0)	(1,0)	(1,0)	(1,0)	(1,0)	
L1D -429>	(1,0)	(1,0)	(1,0)	(1,0)	(1,0)	(1,0)	(1,0)	(1,0)	(1,0)	(1,0)	(1,0)	(1,0)	(1,0)	(1,0)	(1,0)	(1,0)	
L1D -428>	(1,0)	(1,0)	(1,0)	(1,0)	(1,0)	(1,0)	(1,0)	(1,0)	(1,0)	(1,0)	(1,0)	(1,0)	(1,0)	(1,0)	(1,0)	(1,0)	
L1D -427>	(1,0)	(1,0)	(1,0)	(1,0)	(1,0)	(1,0)	(1,0)	(1,0)	(1,0)	(1,0)	(1,0)	(1,0)	(1,0)	(1,0)	(1,0)	(1,0)	
L1D -426>	(1,0)	(1,0)	(1,0)	(1,0)	(1,0)	(1,0)	(1,0)	(1,0)	(1,0)	(1,0)	(1,0)	(1,0)	(1,0)	(1,0)	(1,0)	(1,0)	
L1D -425>	(1,0)	(1,0)	(1,0)	(1,0)	(1,0)	(1,0)	(1,0)	(1,0)	(1,0)	(1,0)	(1,0)	(1,0)	(1,0)	(1,0)	(1,0)	(1,0)	
L1D -424>	(1,0)	(1,0)	(1,0)	(1,0)	(1,0)	(1,0)	(1,0)	(1,0)	(1,0)	(1,0)	(1,0)	(1,0)	(1,0)	(1,0)	(1,0)	(1,0)	
L1D -423>	(1,0)	(1,0)	(1,0)	(1,0)	(1,0)	(1,0)	(1,0)	(1,0)	(1,0)	(1,0)	(1,0)	(1,0)	(1,0)	(1,0)	(1,0)	(1,0)	
L1D -422>	(1,0)	(1,0)	(1,0)	(1,0)	(1,0)	(1,0)	(1,0)	(1,0)	(1,0)	(1,0)	(1,0)	(1,0)	(1,0)	(1,0)	(1,0)	(1,0)	
L1D -421>	(1,0)	(1,0)	(1,0)	(1,0)	(1,0)	(1,0)	(1,0)	(1,0)	(1,0)	(1,0)	(1,0)	(1,0)	(1,0)	(1,0)	(1,0)	(1,0)	
L1D -420>	(2,1)	(1,0)	(1,0)	(1,0)	(1,0)	(1,0)	(1,0)	(1,0)	(1,0)	(1,0)	(1,0)	(1,0)	(1,0)	(1,0)	(1,0)	(1,0)	
L1D -419>	(1,0)	(1,0)	(1,0)	(1,0)	(1,0)	(1,0)	(1,0)	(1,0)	(1,0)	(1,0)	(1,0)	(1,0)	(1,0)	(1,0)	(1,0)	(1,0)	
L1D -418>	(1,0)	(1,0)	(1,0)	(1,0)	(1,0)	(1,0)	(1,0)	(1,0)	(1,0)	(1,0)	(1,0)	(1,0)	(1,0)	(1,0)	(1,0)	(1,0)	
L1D -417>	(1,0)	(1,0)	(1,0)	(1,0)	(1,0)	(1,0)	(1,0)	(1,0)	(1,0)	(1,0)	(1,0)	(1,0)	(1,0)	(1,0)	(1,0)	(1,0)	
L1D -416>	(1,0)	(1,0)	(1,0)	(1,0)	(1,0)	(1,0)	(1,0)	(1,0)	(1,0)	(1,0)	(1,0)	(1,0)	(1,0)	(1,0)	(1,0)	(1,0)	
L1D -415>	(1,0)	(1,0)	(1,0)	(1,0)	(1,0)	(1,0)	(1,0)	(1,0)	(1,0)	(1,0)	(1,0)	(1,0)	(1,0)	(1,0)	(1,0)	(1,0)	
L1D -414>	(1,0)	(1,0)	(1,0)	(1,0)	(1,0)	(1,0)	(1,0)	(1,0)	(1,0)	(1,0)	(1,0)	(1,0)	(1,0)	(1,0)	(1,0)	(1,0)	
L1D -413>	(1,0)	(1,0)	(1,0)	(1,0)	(1,0)	(1,0)	(1,0)	(1,0)	(1,0)	(1,0)	(1,0)	(1,0)	(1,0)	(1,0)	(1,0)	(1,0)	
L1D -412>	(1,0)	(1,0)	(1,0)	(1,0)	(1,0)	(1,0)	(1,0)	(1,0)	(1,0)	(1,0)	(1,0)	(1,0)	(1,0)	(1,0)	(1,0)	(1,0)	
L1D -411>	(1,0)	(1,0)	(1,0)	(1,0)	(1,0)	(1,0)	(1,0)	(1,0)	(1,0)	(1,0)	(1,0)	(1,0)	(1,0)	(1,0)	(1,0)	(1,0)	
L1D -410>	(1,0)	(1,0)	(1,0)	(1,0)	(1,0)	(1,0)	(1,0)	(1,0)	(1,0)	(1,0)	(1,0)	(1,0)	(1,0)	(1,0)	(1,0)	(1,0)	
L1D -409>	(1,0)	(1,0)	(1,0)	(1,0)	(1,0)	(1,0)	(1,0)	(1,0)	(1,0)	(1,0)	(1,0)	(1,0)	(1,0)	(1,0)	(1,0)	(1,0)	
L1D -408>	(1,0)	(1,0)	(1,0)	(1,0)	(1,0)	(1,0)	(1,0)	(1,0)	(1,0)	(1,0)	(1,0)	(1,0)	(1,0)	(1,0)	(1,0)	(1,0)	
L1D -407>	(1,0)	(1,0)	(1,0)	(1,0)	(1,0)	(1,0)	(1,0)	(1,0)	(1,0)	(1,0)	(1,0)	(1,0)	(1,0)	(1,0)	(1,0)	(1,0)	
L1D -406>	(1,0)	(1,0)	(1,0)	(1,0)	(1,0)	(1,0)	(1,0)	(1,0)	(1,0)	(1,0)	(1,0)	(1,0)	(1,0)	(1,0)	(1,0)	(1,0)	
L1D -405>	(1,0)	(1,0)	(1,0)	(1,0)	(1,0)	(1,0)	(1,0)	(1,0)	(1,0)	(1,0)	(1,0)	(1,0)	(1,0)	(1,0)	(1,0)	(1,0)	
L1D -404>	(1,0)	(1,0)	(1,0)	(1,0)	(1,0)	(1,0)	(1,0)	(1,0)	(1,0)	(1,0)	(1,0)	(1,0)	(1,0)	(1,0)	(1,0)	(1,0)	
L1D -403>	(1,0)	(1,0)	(1,0)	(1,0)	(1,0)	(1,0)	(1,0)	(1,0)	(1,0)	(1,0)	(1,0)	(1,0)	(1,0)	(1,0)	(1,0)	(1,0)	
L1D -402>	(1,0)	(1,0)	(1,0)	(1,0)	(1,0)	(1,0)	(1,0)	(1,0)	(1,0)	(1,0)	(1,0)	(1,0)	(1,0)	(1,0)	(1,0)	(1,0)	
L1D -401>	(1,0)	(1,0)	(1,0)	(1,0)	(1,0)	(1,0)	(1,0)	(1,0)	(1,0)	(1,0)	(1,0)	(1,0)	(1,0)	(1,0)	(1,0)	(1,0)	
L1D -400>	(1,0)	(1,0)	(1,0)	(1,0)	(1,0)	(1,0)	(1,0)	(1,0)	(1,0)	(1,0)	(1,0)	(1,0)	(1,0)	(1,0)	(1,0)	(1,0)	
L1D -399>	(1,0)	(1,0)	(1,0)	(1,0)	(1,0)	(1,0)	(1,0)	(1,0)	(1,0)	(1,0)	(1,0)	(1,0)	(1,0)	(1,0)	(1,0)	(1,0)	
L1D -398>	(1,0)	(1,0)	(1,0)	(1,0)	(1,0)	(1,0)	(1,0)	(1,0)	(1,0)	(1,0)	(1,0)	(1,0)	(1,0)	(1,0)	(1,0)	(1,0)	
L1D -397>	(1,0)	(1,0)	(1,0)	(1,0)	(1,0)	(1,0)	(1,0)	(1,0)	(1,0)	(1,0)	(1,0)	(1,0)	(1,0)	(1,0)	(1,0)	(1,0)	
L1D -396>	(1,0)	(1,0)	(1,0)	(1,0)	(1,0)	(1,0)	(1,0)	(1,0)	(1,0)	(1,0)	(1,0)	(1,0)	(1,0)	(1,0)	(1,0)	(1,0)	
L1D -395>	(1,0)	(1,0)	(1,0)	(1,0)	(1,0)	(1,0)	(1,0)	(1,0)	(1,0)	(1,0)	(1,0)	(1,0)	(1,0)	(1,0)	(1,0)	(1,0)	
L1D -394>	(1,0)	(1,0)	(1,0)	(1,0)	(1,0)	(1,0)	(1,0)	(1,0)	(1,0)	(1,0)	(1,0)	(1,0)	(1,0)	(1,0)	(1,0)	(1,0)	
L1D -393>	(1,0)	(1,0)	(1,0)	(1,0)	(1,0)	(1,0)	(1,0)	(1,0)	(1,0)	(1,0)	(1,0)	(1,0)	(1,0)	(1,0)	(1,0)	(1,0)	
L1D -392>	(1,0)	(1,0)	(1,0)	(1,0)	(1,0)	(1,0)	(1,0)	(1,0)	(1,0)	(1,0)	(1,0)	(1,0)	(1,0)	(1,0)	(1,0)	(1,0)	
L1D -391>	(1,0)	(1,0)	(1,0)	(1,0)	(1,0)	(1,0)	(1,0)	(1,0)	(1,0)	(1,0)	(1,0)	(1,0)	(1,0)	(1,0)	(1,0)	(1,0)	
L1D -390>	(2,1)	(1,0)	(1,0)	(1,0)	(1,0)	(1,0)	(1,0)	(1,0)	(1,0)	(1,0)	(1,0)	(1,0)	(1,0)	(1,0)	(1,0)	(1,0)	
L1D -389>	(1,0)	(1,0)	(1,0)	(1,0)	(1,0)	(1,0)	(1,0)	(1,0)	(1,0)	(1,0)	(1,0)	(1,0)	(1,0)	(1,0)	(1,0)	(1,0)	
L1D -388>	(1,0)	(1,0)	(1,0)	(1,0)	(1,0)	(1,0)	(1,0)	(1,0)	(1,0)	(1,0)	(1,0)	(1,0)	(1,0)	(1,0)	(1,0)	(1,0)	
L1D -387>	(1,0)	(1,0)	(1,0)	(1,0)	(1,0)	(1,0)	(1,0)	(1,0)	(1,0)	(1,0)	(1,0)	(1,0)	(1,0)	(1,0)	(1,0)	(1,0)	
L1D -386>	(1,0)	(1,0)	(1,0)	(1,0)	(1,0)	(1,0)	(1,0)	(1,0)	(1,0)	(1,0)	(1,0)	(1,0)	(1,0)	(1,0)	(1,0)	(1,0)	
L1D -385>	(2,1)	(1,0)	(1,0)	(1,0)	(1,0)	(1,0)	(1,0)	(1,0)	(1,0)	(1,0)	(1,0)	(1,0)	(1,0)	(1,0)	(1,0)	(1,0)	
L1D -384>	(1,0)	(1,0)	(1,0)	(1,0)	(1,0)	(1,0)	(1,0)	(1,0)	(1,0)	(1,0)	(1,0)	(1,0)	(1,0)	(1,0)	(1,0)	(1,0)	
L1D -383>	(1,0)	(1,0)	(1,0)	(1,0)	(1,0)	(1,0)	(1,0)	(1,0)	(1,0)	(1,0)	(1,0)	(1,0)	(1,0)	(1,0)	(1,0)	(1,0)	
L1D -382>	(1,0)	(1,0)	(1,0)	(1,0)	(1,0)	(1,0)	(1,0)	(1,0)	(1,0)	(1,0)	(1,0)	(1,0)	(1,0)	(1,0)	(1,0)	(1,0)	
L1D -381>	(1,0)	(1,0)	(1,0)	(1,0)	(1,0)	(1,0)	(1,0)	(1,0)	(1,0)	(1,0)	(1,0)	(1,0)	(1,0)	(1,0)	(1,0)	(1,0)	
L1D -380>	(1,0)	(1,0)	(1,0)	(1,0)	(1,0)	(1,0)	(1,0)	(1,0)	(1,0)	(1,0)	(1,0)	(1,0)	(1,0)	(1,0)	(1,0)	(1,0)	
L1D -379>	(1,0)	(1,0)	(1,0)	(1,0)	(1,0)	(1,0)	(1,0)	(1,0)	(1,0)	(1,0)	(1,0)	(1,0)	(1,0)	(1,0)	(1,0)	(1,0)	
L1D -378>	(1,0)	(1,0)	(1,0)	(1,0)	(1,0)	(1,0)	(1,0)	(1,0)	(1,0)	(1,0)	(1,0)	(1,0)	(1,0)	(1,0)	(1,0)	(1,0)	
L1D -377>	(1,0)	(1,0)	(1,0)	(1,0)	(1,0)	(1,0)	(1,0)	(1,0)	(1,0)	(1,0)	(1,0)	(1,0)	(1,0)	(1,0)	(1,0)	(1,0)	
L1D -376>	(1,0)	(1,0)	(1,0)	(1,0)	(1,0)	(1,0)	(1,0)	(1,0)	(1,0)	(1,0)	(1,0)	(1,0)	(1,0)	(1,0)	(1,0)	(1,0)	
L1D -375>	(1,0)	(1,0)	(1,0)	(1,0)	(1,0)	(1,0)	(1,0)	(1,0)	(1,0)	(1,0)	(1,0)	(1,0)	(1,0)	(1,0)	(1,0)	(1,0)	
L1D -374>	(1,0)	(1,0)	(1,0)	(1,0)	(1,0)	(1,0)	(1,0)	(1,0)	(1,0)	(1,0)	(1,0)	(1,0)	(1,0)	(1,0)	(1,0)	(1,0)	
L1D -373>	(1,0)	(1,0)	(1,0)	(1,0)	(1,0)	(1,0)	(1,0)	(1,0)	(1,0)	(1,0)	(1,0)	(1,0)	(1,0)	(1,0)	(1,0)	(1,0)	
L1D -372>	(1,0)	(1,0)	(1,0)	(1,0)	(1,0)	(1,0)	(1,0)	(1,0)	(1,0)	(1,0)	(1,0)	(1,0)	(1,0)	(1,0)	(1,0)	(1,0)	
L1D -371>	(1,0)	(1,0)	(1,0)	(1,0)	(1,0)	(1,0)	(1,0)	(1,0)	(1,0)	(1,0)	(1,0)	(1,0)	(1,0)	(1,0)	(1,0)	(1,0)	
L1D -370>	(25,17)	(1,0)	(1,0)	(1,0)	(1,0)	(1,0)	(1,0)	(1,0)	(1,0)	(1,0)	(1,0)	(1,0)	(1,0)	(1,0)	(1,0)	(1,0)	
L1D -369>	(-1,1)	(1,0)	(1,0)	(1,0)	(1,0)	(1,0)	(1,0)	(1,0)	(1,0)	(1,0)	(1,0)	(1,0)	(1,0)	(1,0)	(1,0)	(1,0)	
L1D -368>	(1,0)	(1,0)	(1,0)	(1,0)	(1,0)	(1,0)	(1,0)	(1,0)	(1,0)	(1,0)	(1,0)	(1,0)	(1,0)	(1,0)	(1,0)	(1,0)	
L1D -367>	(5,3)	(22,1)	(1,0)	(1,0)	(1,0)	(1,0)	(1,0)	(1,0)	(1,0)	(1,0)	(1,0)	(1,0)	(1,0)	(1,0)	(1,0)	(1,0)	
L1D -366>	(3,4)	(5,2)	(1,0)	(1,0)	(1,0)	(1,0)	(1,0)	(1,0)	(1,0)	(1,0)	(1,0)	(1,0)	(1,0)	(1,0)	(1,0)	(1,0)	
L1D -365>	(369,2)	(1,0)	(1,0)	(1,0)	(1,0)	(1,0)	(1,0)	(1,0)	(1,0)	(1,0)	(1,0)	(1,0)	(1,0)	(1,0)	(1,0)	(1,0)	
L1D -364>	(50,2)	(52,9)	(51,6)	(363,1)	(353,1)	(49,1)	(1,0)	(1,0)	(1,0)	(1,0)	(1,0)	(1,0)	(1,0)	(1,0)	(1,0)	(1,0)	
L1D -363>	(51,9)	(361,1)	(75,31)	(355,1)	(5,2)	(1,0)	(1,0)	(1,0)	(1,0)	(1,0)	(1,0)	(1,0)	(1,0)	(1,0)	(1,0)	(1,0)	
L1D -362>	(50,3)	(36,1)	(52,1)	(51,1)	(27,2)	(1,0)	(1,0)	(1,0)	(1,0)	(1,0)	(1,0)	(1,0)	(1,0)	(1,0)	(1,0)	(1,0)	
L1D -361>	(354,2)	(359,1)	(44,1)	(49,1)	(1,2)	(1,0)	(1,0)	(1,0)	(1,0)	(1,0)	(1,0)	(1,0)	(1,0)	(1,0)	(1,0)	(1,0)	
L1D -360>	(48,4)	(52,1)	(51,1)	(40,1)	(64,1)	(1,0)	(1,0)	(1,0)	(1,0)	(1,0)	(1,0)	(1,0)	(1,0)	(1,0)	(1,0)	(1,0)	
L1D -359>	(364,1)	(1,0)	(1,0)	(1,0)	(1,0)	(1,0)	(1,0)	(1,0)	(1,0)	(1,0)	(1,0)	(1,0)	(1,0)	(1,0)	(1,0)	(1,0)	
L1D -358>	(46,2)	(364,2)	(363,2)	(347,1)	(1,0)	(1,0)	(1,0)	(1,0)	(1,0)	(1,0)	(1,0)	(1,0)	(1,0)	(1,0)	(1,0)	(1,0)	
L1D -357>	(351,1)	(1,0)	(1,0)	(1,0)	(1,0)	(1,0)	(1,0)	(1,0)	(1,0)	(1,0)	(1,0)	(1,0)	(1,0)	(1,0)	(1,0)	(1,0)	
L1D -356>	(361,1)	(343,2)	(1,0)	(1,0)	(1,0)	(1,0)	(1,0)	(1,0)	(1,0)	(1,0)	(1,0)	(1,0)	(1,0)	(1,0)	(1,0)	(1,0)	
L1D -355>	(43,1)	(364,1)	(1,0)	(1,0)	(1,0)	(1,0)	(1,0)	(1,0)	(1,0)	(1,0)	(1,0)	(1,0)	(1,0)	(1,0)	(1,0)	(1,0)	
L1D -354>	(364,1)	(1,0)	(1,0)	(1,0)	(1,0)	(1,0)	(1,0)	(1,0)	(1,0)	(1,0)	(1,0)	(1,0)	(1,0)	(1,0)	(1,0)	(1,0)	
L1D -353>	(41,1)	(342,1)	(1,0)	(1,0)	(1,0)	(1,0)	(1,0)	(1,0)	(1,0)	(1,0)	(1,0)	(1,0)	(1,0)	(1,0)	(1,0)	(1,0)	
L1D -352>	(354,1)	(1,0)	(1,0)	(1,0)	(1,0)	(1,0)	(1,0)	(1,0)	(1,0)	(1,0)	(1,0)	(1,0)	(1,0)	(1,0)	(1,0)	(1,0)	
L1D -351>	(39,1)	(1,0)	(1,0)	(1,0)	(1,0)	(1,0)	(1,0)	(1,0)	(1,0)	(1,0)	(1,0)	(1,0)	(1,0)	(1,0)	(1,0)	(1,0)	
L1D -350>	(364,1)	(1,0)	(1,0)	(1,0)	(1,0)	(1,0)	(1,0)	(1,0)	(1,0)	(1,0)	(1,0)	(1,0)	(1,0)	(1,0)	(1,0)	(1,0)	
L1D -349>	(48,1)	(351,1)	(1,0)	(1,0)	(1,0)	(1,0)	(1,0)	(1,0)	(1,0)	(1,0)	(1,0)	(1,0)	(1,0)	(1,0)	(1,0)	(1,0)	
L1D -348>	(36,1)	(1,0)	(1,0)	(1,0)	(1,0)	(1,0)	(1,0)	(1,0)	(1,0)	(1,0)	(1,0)	(1,0)	(1,0)	(1,0)	(1,0)	(1,0)	
L1D -347>	(364,1)	(1,0)	(1,0)	(1,0)	(1,0)	(1,0)	(1,0)	(1,0)	(1,0)	(1,0)	(1,0)	(1,0)	(1,0)	(1,0)	(1,0)	(1,0)	
L1D -346>	(364,1)	(1,0)	(1,0)	(1,0)	(1,0)	(1,0)	(1,0)	(1,0)	(1,0)	(1,0)	(1,0)	(1,0)	(1,0)	(1,0)	(1,0)	(1,0)	
L1D -345>	(-47,7)	(22,7)	(23,8)	(1,0)	(1,0)	(1,0)	(1,0)	(1,0)	(1,0)	(1,0)	(1,0)	(1,0)	(1,0)	(1,0)	(1,0)	(1,0)	
L1D -344>	(363,1)	(1,0)	(1,0)	(1,0)	(1,0)	(1,0)	(1,0)	(1,0)	(1,0)	(1,0)	(1,0)	(1,0)	(1,0)	(1,0)	(1,0)	(1,0)	
L1D -343>	(364,1)	(1,0)	(1,0)	(1,0)	(1,0)	(1,0)	(1,0)	(1,0)	(1,0)	(1,0)	(1,0)	(1,0)	(1,0)	(1,0)	(1,0)	(1,0)	
L1D -342>	(1,0)	(1,0)	(1,0)	(1,0)	(1,0)	(1,0)	(1,0)	(1,0)	(1,0)	(1,0)	(1,0)	(1,0)	(1,0)	(1,0)	(1,0)	(1,0)	
L1D -341>	(364,1)	(1,0)	(1,0)	(1,0)	(1,0)	(1,0)	(1,0)	(1,0)	(1,0)	(1,0)	(1,0)	(1,0)	(1,0)	(1,0)	(1,0)	(1,0)	
L1D -340>	(-1,1)	(1,0)	(1,0)	(1,0)	(1,0)	(1,0)	(1,0)	(1,0)	(1,0)	(1,0)	(1,0)	(1,0)	(1,0)	(1,0)	(1,0)	(1,0)	
L1D -339>	(27,3)	(338,1)	(1,0)	(1,0)	(1,0)	(1,0)	(1,0)	(1,0)	(1,0)	(1,0)	(1,0)	(1,0)	(1,0)	(1,0)	(1,0)	(1,0)	
L1D -338>	(74,1)	(337,1)	(26,1)	(25,1)	(335,1)	(1,0)	(1,0)	(1,0)	(1,0)	(1,0)	(1,0)	(1,0)	(1,0)	(1,0)	(1,0)	(1,0)	
L1D -337>	(26,2)	(336,1)	(27,1)	(1,0)	(1,0)	(1,0)	(1,0)	(1,0)	(1,0)	(1,0)	(1,0)	(1,0)	(1,0)	(1,0)	(1,0)	(1,0)	
L1D -336>	(338,2)	(25,1)	(24,1)	(-28,1)	(1,0)	(1,0)	(1,0)	(1,0)	(1,0)	(1,0)	(1,0)	(1,0)	(1,0)	(1,0)	(1,0)	(1,0)	
L1D -335>	(23,2)	(313,1)	(334,1)	(2,1)	(1,0)	(1,0)	(1,0)	(1,0)	(1,0)	(1,0)	(1,0)	(1,0)	(1,0)	(1,0)	(1,0)	(1,0)	
L1D -334>	(1,0)	(1,0)	(1,0)	(1,0)	(1,0)	(1,0)	(1,0)	(1,0)	(1,0)	(1,0)	(1,0)	(1,0)	(1,0)	(1,0)	(1,0)	(1,0)	
L1D -333>	(313,1)	(1,0)	(1,0)	(1,0)	(1,0)	(1,0)	(1,0)	(1,0)	(1,0)	(1,0)	(1,0)	(1,0)	(1,0)	(1,0)	(1,0)	(1,0)	
L1D -332>	(20,2)	(1,0)	(1,0)	(1,0)	(1,0)	(1,0)	(1,0)	(1,0)	(1,0)	(1,0)	(1,0)	(1,0)	(1,0)	(1,0)	(1,0)	(1,0)	
L1D -331>	(1,0)	(1,0)	(1,0)	(1,0)	(1,0)	(1,0)	(1,0)	(1,0)	(1,0)	(1,0)	(1,0)	(1,0)	(1,0)	(1,0)	(1,0)	(1,0)	
L1D -330>	(18,1)	(1,0)	(1,0)	(1,0)	(1,0)	(1,0)	(1,0)	(1,0)	(1,0)	(1,0)	(1,0)	(1,0)	(1,0)	(1,0)	(1,0)	(1,0)	
L1D -329>	(14,1)	(2,1)	(1,0)	(1,0)	(1,0)	(1,0)	(1,0)	(1,0)	(1,0)	(1,0)	(1,0)	(1,0)	(1,0)	(1,0)	(1,0)	(1,0)	
L1D -328>	(313,1)	(1,0)	(1,0)	(1,0)	(1,0)	(1,0)	(1,0)	(1,0)	(1,0)	(1,0)	(1,0)	(1,0)	(1,0)	(1,0)	(1,0)	(1,0)	
L1D -327>	(313,1)	(1,0)	(1,0)	(1,0)	(1,0)	(1,0)	(1,0)	(1,0)	(1,0)	(1,0)	(1,0)	(1,0)	(1,0)	(1,0)	(1,0)	(1,0)	
L1D -326>	(313,3)	(324,1)	(1,0)	(1,0)	(1,0)	(1,0)	(1,0)	(1,0)	(1,0)	(1,0)	(1,0)	(1,0)	(1,0)	(1,0)	(1,0)	(1,0)	
L1D -325>	(58,1)	(13,11)	(-15,1)	(-14,3)	(60,1)	(1,0)	(1,0)	(1,0)	(1,0)	(1,0)	(1,0)	(1,0)	(1,0)	(1,0)	(1,0)	(1,0)	
L1D -324>	(12,1)	(15,1)	(323,1)	(313,1)	(-21,3)	(-1,2)	(1,0)	(1,0)	(1,0)	(1,0)	(1,0)	(1,0)	(1,0)	(1,0)	(1,0)	(1,0)	
L1D -323>	(313,1)	(1,0)	(1,0)	(1,0)	(1,0)	(1,0)	(1,0)	(1,0)	(1,0)	(1,0)	(1,0)	(1,0)	(1,0)	(1,0)	(1,0)	(1,0)	
L1D -322>	(313,1)	(326,1)	(1,0)	(1,0)	(1,0)	(1,0)	(1,0)	(1,0)	(1,0)	(1,0)	(1,0)	(1,0)	(1,0)	(1,0)	(1,0)	(1,0)	
L1D -321>	(1,0)	(1,0)	(1,0)	(1,0)	(1,0)	(1,0)	(1,0)	(1,0)	(1,0)	(1,0)	(1,0)	(1,0)	(1,0)	(1,0)	(1,0)	(1,0)	
L1D -320>	(-40,1)	(1,0)	(1,0)	(1,0)	(1,0)	(1,0)	(1,0)	(1,0)	(1,0)	(1,0)	(1,0)	(1,0)	(1,0)	(1,0)	(1,0)	(1,0)	
L1D -319>	(318,1)	(316,1)	(1,0)	(1,0)	(1,0)	(1,0)	(1,0)	(1,0)	(1,0)	(1,0)	(1,0)	(1,0)	(1,0)	(1,0)	(1,0)	(1,0)	
L1D -318>	(8,2)	(1,0)	(1,0)	(1,0)	(1,0)	(1,0)	(1,0)	(1,0)	(1,0)	(1,0)	(1,0)	(1,0)	(1,0)	(1,0)	(1,0)	(1,0)	
L1D -317>	(312,1)	(-41,2)	(7,1)	(315,1)	(314,3)	(-46,1)	(316,1)	(1,1)	(1,0)	(1,0)	(1,0)	(1,0)	(1,0)	(1,0)	(1,0)	(1,0)	
L1D -316>	(-47,1)	(313,8)	(297,1)	(310,1)	(4,2)	(3,1)	(1,0)	(1,0)	(1,0)	(1,0)	(1,0)	(1,0)	(1,0)	(1,0)	(1,0)	(1,0)	
L1D -315>	(-46,1)	(-49,3)	(309,2)	(316,1)	(310,1)	(303,1)	(314,1)	(299,1)	(-25,1)	(-39,1)	(1,0)	(1,0)	(1,0)	(1,0)	(1,0)	(1,0)	
L1D -314>	(2,4)	(-40,1)	(312,2)	(296,1)	(326,1)	(316,2)	(299,1)	(304,2)	(295,1)	(-13,1)	(309,1)	(308,1)	(1,0)	(1,0)	(1,0)	(1,0)	
L1D -313>	(-2,6)	(-8,1)	(296,1)	(310,4)	(308,4)	(-26,1)	(309,4)	(311,10)	(305,1)	(317,2)	(298,1)	(312,3)	(-50,1)	(8,1)	(300,1)	(306,1)	
L1D -312>	(311,71)	(314,31)	(313,58)	(-24,4)	(310,29)	(2,20)	(309,26)	(292,4)	(308,15)	(-1,1)	(326,6)	(13,5)	(323,7)	(10,6)	(-45,3)	(307,8)	
L1D -311>	(316,1)	(294,6)	(-19,1)	(332,1)	(-37,1)	(-1,7)	(2,1)	(318,1)	(-51,1)	(319,2)	(324,1)	(296,1)	(288,1)	(314,2)	(5,1)	(313,2)	
L1D -310>	(-2,19)	(320,1)	(-17,2)	(309,2)	(302,1)	(14,1)	(314,1)	(315,1)	(322,1)	(1,0)	(1,0)	(1,0)	(1,0)	(1,0)	(1,0)	(1,0)	
L1D -309>	(306,1)	(-52,3)	(316,6)	(311,1)	(-3,3)	(312,1)	(305,1)	(310,1)	(307,1)	(1,0)	(1,0)	(1,0)	(1,0)	(1,0)	(1,0)	(1,0)	
L1D -308>	(293,1)	(-42,1)	(299,1)	(312,1)	(-4,1)	(1,0)	(1,0)	(1,0)	(1,0)	(1,0)	(1,0)	(1,0)	(1,0)	(1,0)	(1,0)	(1,0)	
L1D -307>	(1,0)	(1,0)	(1,0)	(1,0)	(1,0)	(1,0)	(1,0)	(1,0)	(1,0)	(1,0)	(1,0)	(1,0)	(1,0)	(1,0)	(1,0)	(1,0)	
L1D -306>	(-1,1)	(311,1)	(321,1)	(1,0)	(1,0)	(1,0)	(1,0)	(1,0)	(1,0)	(1,0)	(1,0)	(1,0)	(1,0)	(1,0)	(1,0)	(1,0)	
L1D -305>	(293,1)	(310,1)	(322,1)	(-7,1)	(1,0)	(1,0)	(1,0)	(1,0)	(1,0)	(1,0)	(1,0)	(1,0)	(1,0)	(1,0)	(1,0)	(1,0)	
L1D -304>	(305,1)	(311,2)	(-6,1)	(306,1)	(1,0)	(1,0)	(1,0)	(1,0)	(1,0)	(1,0)	(1,0)	(1,0)	(1,0)	(1,0)	(1,0)	(1,0)	
L1D -303>	(-2,1)	(-4,1)	(306,1)	(323,1)	(-9,1)	(1,0)	(1,0)	(1,0)	(1,0)	(1,0)	(1,0)	(1,0)	(1,0)	(1,0)	(1,0)	(1,0)	
L1D -302>	(324,1)	(1,0)	(1,0)	(1,0)	(1,0)	(1,0)	(1,0)	(1,0)	(1,0)	(1,0)	(1,0)	(1,0)	(1,0)	(1,0)	(1,0)	(1,0)	
L1D -301>	(326,1)	(-11,1)	(-10,1)	(303,1)	(306,1)	(1,0)	(1,0)	(1,0)	(1,0)	(1,0)	(1,0)	(1,0)	(1,0)	(1,0)	(1,0)	(1,0)	
L1D -300>	(-12,3)	(-37,1)	(301,1)	(311,1)	(1,0)	(1,0)	(1,0)	(1,0)	(1,0)	(1,0)	(1,0)	(1,0)	(1,0)	(1,0)	(1,0)	(1,0)	
L1D -299>	(327,2)	(311,2)	(-11,1)	(310,2)	(1,0)	(1,0)	(1,0)	(1,0)	(1,0)	(1,0)	(1,0)	(1,0)	(1,0)	(1,0)	(1,0)	(1,0)	
L1D -298>	(-14,1)	(299,1)	(1,0)	(1,0)	(1,0)	(1,0)	(1,0)	(1,0)	(1,0)	(1,0)	(1,0)	(1,0)	(1,0)	(1,0)	(1,0)	(1,0)	
L1D -297>	(-15,1)	(1,0)	(1,0)	(1,0)	(1,0)	(1,0)	(1,0)	(1,0)	(1,0)	(1,0)	(1,0)	(1,0)	(1,0)	(1,0)	(1,0)	(1,0)	
L1D -296>	(298,1)	(1,0)	(1,0)	(1,0)	(1,0)	(1,0)	(1,0)	(1,0)	(1,0)	(1,0)	(1,0)	(1,0)	(1,0)	(1,0)	(1,0)	(1,0)	
L1D -295>	(311,1)	(-4,1)	(1,0)	(1,0)	(1,0)	(1,0)	(1,0)	(1,0)	(1,0)	(1,0)	(1,0)	(1,0)	(1,0)	(1,0)	(1,0)	(1,0)	
L1D -294>	(311,1)	(295,1)	(1,0)	(1,0)	(1,0)	(1,0)	(1,0)	(1,0)	(1,0)	(1,0)	(1,0)	(1,0)	(1,0)	(1,0)	(1,0)	(1,0)	
L1D -293>	(1,0)	(1,0)	(1,0)	(1,0)	(1,0)	(1,0)	(1,0)	(1,0)	(1,0)	(1,0)	(1,0)	(1,0)	(1,0)	(1,0)	(1,0)	(1,0)	
L1D -292>	(1,0)	(1,0)	(1,0)	(1,0)	(1,0)	(1,0)	(1,0)	(1,0)	(1,0)	(1,0)	(1,0)	(1,0)	(1,0)	(1,0)	(1,0)	(1,0)	
L1D -291>	(-20,1)	(1,0)	(1,0)	(1,0)	(1,0)	(1,0)	(1,0)	(1,0)	(1,0)	(1,0)	(1,0)	(1,0)	(1,0)	(1,0)	(1,0)	(1,0)	
L1D -290>	(-22,1)	(1,0)	(1,0)	(1,0)	(1,0)	(1,0)	(1,0)	(1,0)	(1,0)	(1,0)	(1,0)	(1,0)	(1,0)	(1,0)	(1,0)	(1,0)	
L1D -289>	(-22,1)	(1,0)	(1,0)	(1,0)	(1,0)	(1,0)	(1,0)	(1,0)	(1,0)	(1,0)	(1,0)	(1,0)	(1,0)	(1,0)	(1,0)	(1,0)	
L1D -288>	(1,0)	(1,0)	(1,0)	(1,0)	(1,0)	(1,0)	(1,0)	(1,0)	(1,0)	(1,0)	(1,0)	(1,0)	(1,0)	(1,0)	(1,0)	(1,0)	
L1D -287>	(1,0)	(1,0)	(1,0)	(1,0)	(1,0)	(1,0)	(1,0)	(1,0)	(1,0)	(1,0)	(1,0)	(1,0)	(1,0)	(1,0)	(1,0)	(1,0)	
L1D -286>	(288,1)	(1,0)	(1,0)	(1,0)	(1,0)	(1,0)	(1,0)	(1,0)	(1,0)	(1,0)	(1,0)	(1,0)	(1,0)	(1,0)	(1,0)	(1,0)	
L1D -285>	(1,0)	(1,0)	(1,0)	(1,0)	(1,0)	(1,0)	(1,0)	(1,0)	(1,0)	(1,0)	(1,0)	(1,0)	(1,0)	(1,0)	(1,0)	(1,0)	
L1D -284>	(1,0)	(1,0)	(1,0)	(1,0)	(1,0)	(1,0)	(1,0)	(1,0)	(1,0)	(1,0)	(1,0)	(1,0)	(1,0)	(1,0)	(1,0)	(1,0)	
L1D -283>	(1,0)	(1,0)	(1,0)	(1,0)	(1,0)	(1,0)	(1,0)	(1,0)	(1,0)	(1,0)	(1,0)	(1,0)	(1,0)	(1,0)	(1,0)	(1,0)	
L1D -282>	(1,0)	(1,0)	(1,0)	(1,0)	(1,0)	(1,0)	(1,0)	(1,0)	(1,0)	(1,0)	(1,0)	(1,0)	(1,0)	(1,0)	(1,0)	(1,0)	
L1D -281>	(1,0)	(1,0)	(1,0)	(1,0)	(1,0)	(1,0)	(1,0)	(1,0)	(1,0)	(1,0)	(1,0)	(1,0)	(1,0)	(1,0)	(1,0)	(1,0)	
L1D -280>	(2,1)	(1,0)	(1,0)	(1,0)	(1,0)	(1,0)	(1,0)	(1,0)	(1,0)	(1,0)	(1,0)	(1,0)	(1,0)	(1,0)	(1,0)	(1,0)	
L1D -279>	(1,0)	(1,0)	(1,0)	(1,0)	(1,0)	(1,0)	(1,0)	(1,0)	(1,0)	(1,0)	(1,0)	(1,0)	(1,0)	(1,0)	(1,0)	(1,0)	
L1D -278>	(1,0)	(1,0)	(1,0)	(1,0)	(1,0)	(1,0)	(1,0)	(1,0)	(1,0)	(1,0)	(1,0)	(1,0)	(1,0)	(1,0)	(1,0)	(1,0)	
L1D -277>	(1,0)	(1,0)	(1,0)	(1,0)	(1,0)	(1,0)	(1,0)	(1,0)	(1,0)	(1,0)	(1,0)	(1,0)	(1,0)	(1,0)	(1,0)	(1,0)	
L1D -276>	(1,0)	(1,0)	(1,0)	(1,0)	(1,0)	(1,0)	(1,0)	(1,0)	(1,0)	(1,0)	(1,0)	(1,0)	(1,0)	(1,0)	(1,0)	(1,0)	
L1D -275>	(1,0)	(1,0)	(1,0)	(1,0)	(1,0)	(1,0)	(1,0)	(1,0)	(1,0)	(1,0)	(1,0)	(1,0)	(1,0)	(1,0)	(1,0)	(1,0)	
L1D -274>	(1,0)	(1,0)	(1,0)	(1,0)	(1,0)	(1,0)	(1,0)	(1,0)	(1,0)	(1,0)	(1,0)	(1,0)	(1,0)	(1,0)	(1,0)	(1,0)	
L1D -273>	(1,0)	(1,0)	(1,0)	(1,0)	(1,0)	(1,0)	(1,0)	(1,0)	(1,0)	(1,0)	(1,0)	(1,0)	(1,0)	(1,0)	(1,0)	(1,0)	
L1D -272>	(1,0)	(1,0)	(1,0)	(1,0)	(1,0)	(1,0)	(1,0)	(1,0)	(1,0)	(1,0)	(1,0)	(1,0)	(1,0)	(1,0)	(1,0)	(1,0)	
L1D -271>	(1,0)	(1,0)	(1,0)	(1,0)	(1,0)	(1,0)	(1,0)	(1,0)	(1,0)	(1,0)	(1,0)	(1,0)	(1,0)	(1,0)	(1,0)	(1,0)	
L1D -270>	(2,1)	(1,0)	(1,0)	(1,0)	(1,0)	(1,0)	(1,0)	(1,0)	(1,0)	(1,0)	(1,0)	(1,0)	(1,0)	(1,0)	(1,0)	(1,0)	
L1D -269>	(268,2)	(269,2)	(1,0)	(1,0)	(1,0)	(1,0)	(1,0)	(1,0)	(1,0)	(1,0)	(1,0)	(1,0)	(1,0)	(1,0)	(1,0)	(1,0)	
L1D -268>	(269,7)	(268,2)	(1,0)	(1,0)	(1,0)	(1,0)	(1,0)	(1,0)	(1,0)	(1,0)	(1,0)	(1,0)	(1,0)	(1,0)	(1,0)	(1,0)	
L1D -267>	(1,0)	(1,0)	(1,0)	(1,0)	(1,0)	(1,0)	(1,0)	(1,0)	(1,0)	(1,0)	(1,0)	(1,0)	(1,0)	(1,0)	(1,0)	(1,0)	
L1D -266>	(-3,1)	(1,0)	(1,0)	(1,0)	(1,0)	(1,0)	(1,0)	(1,0)	(1,0)	(1,0)	(1,0)	(1,0)	(1,0)	(1,0)	(1,0)	(1,0)	
L1D -265>	(5,1)	(138,1)	(264,57)	(-3,3)	(2,1)	(1,0)	(1,0)	(1,0)	(1,0)	(1,0)	(1,0)	(1,0)	(1,0)	(1,0)	(1,0)	(1,0)	
L1D -264>	(5,15)	(2,7)	(1,0)	(1,0)	(1,0)	(1,0)	(1,0)	(1,0)	(1,0)	(1,0)	(1,0)	(1,0)	(1,0)	(1,0)	(1,0)	(1,0)	
L1D -263>	(1,0)	(1,0)	(1,0)	(1,0)	(1,0)	(1,0)	(1,0)	(1,0)	(1,0)	(1,0)	(1,0)	(1,0)	(1,0)	(1,0)	(1,0)	(1,0)	
L1D -262>	(-3,87)	(3,35)	(1,0)	(1,0)	(1,0)	(1,0)	(1,0)	(1,0)	(1,0)	(1,0)	(1,0)	(1,0)	(1,0)	(1,0)	(1,0)	(1,0)	
L1D -261>	(1,0)	(1,0)	(1,0)	(1,0)	(1,0)	(1,0)	(1,0)	(1,0)	(1,0)	(1,0)	(1,0)	(1,0)	(1,0)	(1,0)	(1,0)	(1,0)	
L1D -260>	(-5,66)	(1,0)	(1,0)	(1,0)	(1,0)	(1,0)	(1,0)	(1,0)	(1,0)	(1,0)	(1,0)	(1,0)	(1,0)	(1,0)	(1,0)	(1,0)	
L1D -259>	(-5,14)	(1,0)	(1,0)	(1,0)	(1,0)	(1,0)	(1,0)	(1,0)	(1,0)	(1,0)	(1,0)	(1,0)	(1,0)	(1,0)	(1,0)	(1,0)	
L1D -258>	(1,0)	(1,0)	(1,0)	(1,0)	(1,0)	(1,0)	(1,0)	(1,0)	(1,0)	(1,0)	(1,0)	(1,0)	(1,0)	(1,0)	(1,0)	(1,0)	
L1D -257>	(1,0)	(1,0)	(1,0)	(1,0)	(1,0)	(1,0)	(1,0)	(1,0)	(1,0)	(1,0)	(1,0)	(1,0)	(1,0)	(1,0)	(1,0)	(1,0)	
L1D -256>	(1,0)	(1,0)	(1,0)	(1,0)	(1,0)	(1,0)	(1,0)	(1,0)	(1,0)	(1,0)	(1,0)	(1,0)	(1,0)	(1,0)	(1,0)	(1,0)	
L1D -255>	(1,0)	(1,0)	(1,0)	(1,0)	(1,0)	(1,0)	(1,0)	(1,0)	(1,0)	(1,0)	(1,0)	(1,0)	(1,0)	(1,0)	(1,0)	(1,0)	
L1D -254>	(1,0)	(1,0)	(1,0)	(1,0)	(1,0)	(1,0)	(1,0)	(1,0)	(1,0)	(1,0)	(1,0)	(1,0)	(1,0)	(1,0)	(1,0)	(1,0)	
L1D -253>	(1,0)	(1,0)	(1,0)	(1,0)	(1,0)	(1,0)	(1,0)	(1,0)	(1,0)	(1,0)	(1,0)	(1,0)	(1,0)	(1,0)	(1,0)	(1,0)	
L1D -252>	(1,0)	(1,0)	(1,0)	(1,0)	(1,0)	(1,0)	(1,0)	(1,0)	(1,0)	(1,0)	(1,0)	(1,0)	(1,0)	(1,0)	(1,0)	(1,0)	
L1D -251>	(1,0)	(1,0)	(1,0)	(1,0)	(1,0)	(1,0)	(1,0)	(1,0)	(1,0)	(1,0)	(1,0)	(1,0)	(1,0)	(1,0)	(1,0)	(1,0)	
L1D -250>	(1,0)	(1,0)	(1,0)	(1,0)	(1,0)	(1,0)	(1,0)	(1,0)	(1,0)	(1,0)	(1,0)	(1,0)	(1,0)	(1,0)	(1,0)	(1,0)	
L1D -249>	(1,0)	(1,0)	(1,0)	(1,0)	(1,0)	(1,0)	(1,0)	(1,0)	(1,0)	(1,0)	(1,0)	(1,0)	(1,0)	(1,0)	(1,0)	(1,0)	
L1D -248>	(1,0)	(1,0)	(1,0)	(1,0)	(1,0)	(1,0)	(1,0)	(1,0)	(1,0)	(1,0)	(1,0)	(1,0)	(1,0)	(1,0)	(1,0)	(1,0)	
L1D -247>	(1,0)	(1,0)	(1,0)	(1,0)	(1,0)	(1,0)	(1,0)	(1,0)	(1,0)	(1,0)	(1,0)	(1,0)	(1,0)	(1,0)	(1,0)	(1,0)	
L1D -246>	(1,0)	(1,0)	(1,0)	(1,0)	(1,0)	(1,0)	(1,0)	(1,0)	(1,0)	(1,0)	(1,0)	(1,0)	(1,0)	(1,0)	(1,0)	(1,0)	
L1D -245>	(1,0)	(1,0)	(1,0)	(1,0)	(1,0)	(1,0)	(1,0)	(1,0)	(1,0)	(1,0)	(1,0)	(1,0)	(1,0)	(1,0)	(1,0)	(1,0)	
L1D -244>	(1,0)	(1,0)	(1,0)	(1,0)	(1,0)	(1,0)	(1,0)	(1,0)	(1,0)	(1,0)	(1,0)	(1,0)	(1,0)	(1,0)	(1,0)	(1,0)	
L1D -243>	(1,0)	(1,0)	(1,0)	(1,0)	(1,0)	(1,0)	(1,0)	(1,0)	(1,0)	(1,0)	(1,0)	(1,0)	(1,0)	(1,0)	(1,0)	(1,0)	
L1D -242>	(1,0)	(1,0)	(1,0)	(1,0)	(1,0)	(1,0)	(1,0)	(1,0)	(1,0)	(1,0)	(1,0)	(1,0)	(1,0)	(1,0)	(1,0)	(1,0)	
L1D -241>	(1,0)	(1,0)	(1,0)	(1,0)	(1,0)	(1,0)	(1,0)	(1,0)	(1,0)	(1,0)	(1,0)	(1,0)	(1,0)	(1,0)	(1,0)	(1,0)	
L1D -240>	(1,0)	(1,0)	(1,0)	(1,0)	(1,0)	(1,0)	(1,0)	(1,0)	(1,0)	(1,0)	(1,0)	(1,0)	(1,0)	(1,0)	(1,0)	(1,0)	
L1D -239>	(186,4)	(1,0)	(1,0)	(1,0)	(1,0)	(1,0)	(1,0)	(1,0)	(1,0)	(1,0)	(1,0)	(1,0)	(1,0)	(1,0)	(1,0)	(1,0)	
L1D -238>	(1,0)	(1,0)	(1,0)	(1,0)	(1,0)	(1,0)	(1,0)	(1,0)	(1,0)	(1,0)	(1,0)	(1,0)	(1,0)	(1,0)	(1,0)	(1,0)	
L1D -237>	(1,0)	(1,0)	(1,0)	(1,0)	(1,0)	(1,0)	(1,0)	(1,0)	(1,0)	(1,0)	(1,0)	(1,0)	(1,0)	(1,0)	(1,0)	(1,0)	
L1D -236>	(1,0)	(1,0)	(1,0)	(1,0)	(1,0)	(1,0)	(1,0)	(1,0)	(1,0)	(1,0)	(1,0)	(1,0)	(1,0)	(1,0)	(1,0)	(1,0)	
L1D -235>	(1,0)	(1,0)	(1,0)	(1,0)	(1,0)	(1,0)	(1,0)	(1,0)	(1,0)	(1,0)	(1,0)	(1,0)	(1,0)	(1,0)	(1,0)	(1,0)	
L1D -234>	(1,0)	(1,0)	(1,0)	(1,0)	(1,0)	(1,0)	(1,0)	(1,0)	(1,0)	(1,0)	(1,0)	(1,0)	(1,0)	(1,0)	(1,0)	(1,0)	
L1D -233>	(1,0)	(1,0)	(1,0)	(1,0)	(1,0)	(1,0)	(1,0)	(1,0)	(1,0)	(1,0)	(1,0)	(1,0)	(1,0)	(1,0)	(1,0)	(1,0)	
L1D -232>	(5,5)	(1,0)	(1,0)	(1,0)	(1,0)	(1,0)	(1,0)	(1,0)	(1,0)	(1,0)	(1,0)	(1,0)	(1,0)	(1,0)	(1,0)	(1,0)	
L1D -231>	(3,7)	(1,0)	(1,0)	(1,0)	(1,0)	(1,0)	(1,0)	(1,0)	(1,0)	(1,0)	(1,0)	(1,0)	(1,0)	(1,0)	(1,0)	(1,0)	
L1D -230>	(1,0)	(1,0)	(1,0)	(1,0)	(1,0)	(1,0)	(1,0)	(1,0)	(1,0)	(1,0)	(1,0)	(1,0)	(1,0)	(1,0)	(1,0)	(1,0)	
L1D -229>	(1,0)	(1,0)	(1,0)	(1,0)	(1,0)	(1,0)	(1,0)	(1,0)	(1,0)	(1,0)	(1,0)	(1,0)	(1,0)	(1,0)	(1,0)	(1,0)	
L1D -228>	(1,0)	(1,0)	(1,0)	(1,0)	(1,0)	(1,0)	(1,0)	(1,0)	(1,0)	(1,0)	(1,0)	(1,0)	(1,0)	(1,0)	(1,0)	(1,0)	
L1D -227>	(224,1)	(180,2)	(1,0)	(1,0)	(1,0)	(1,0)	(1,0)	(1,0)	(1,0)	(1,0)	(1,0)	(1,0)	(1,0)	(1,0)	(1,0)	(1,0)	
L1D -226>	(1,0)	(1,0)	(1,0)	(1,0)	(1,0)	(1,0)	(1,0)	(1,0)	(1,0)	(1,0)	(1,0)	(1,0)	(1,0)	(1,0)	(1,0)	(1,0)	
L1D -225>	(2,1)	(1,0)	(1,0)	(1,0)	(1,0)	(1,0)	(1,0)	(1,0)	(1,0)	(1,0)	(1,0)	(1,0)	(1,0)	(1,0)	(1,0)	(1,0)	
L1D -224>	(1,0)	(1,0)	(1,0)	(1,0)	(1,0)	(1,0)	(1,0)	(1,0)	(1,0)	(1,0)	(1,0)	(1,0)	(1,0)	(1,0)	(1,0)	(1,0)	
L1D -223>	(1,0)	(1,0)	(1,0)	(1,0)	(1,0)	(1,0)	(1,0)	(1,0)	(1,0)	(1,0)	(1,0)	(1,0)	(1,0)	(1,0)	(1,0)	(1,0)	
L1D -222>	(1,0)	(1,0)	(1,0)	(1,0)	(1,0)	(1,0)	(1,0)	(1,0)	(1,0)	(1,0)	(1,0)	(1,0)	(1,0)	(1,0)	(1,0)	(1,0)	
L1D -221>	(1,0)	(1,0)	(1,0)	(1,0)	(1,0)	(1,0)	(1,0)	(1,0)	(1,0)	(1,0)	(1,0)	(1,0)	(1,0)	(1,0)	(1,0)	(1,0)	
L1D -220>	(2,1)	(1,0)	(1,0)	(1,0)	(1,0)	(1,0)	(1,0)	(1,0)	(1,0)	(1,0)	(1,0)	(1,0)	(1,0)	(1,0)	(1,0)	(1,0)	
L1D -219>	(2,6)	(1,0)	(1,0)	(1,0)	(1,0)	(1,0)	(1,0)	(1,0)	(1,0)	(1,0)	(1,0)	(1,0)	(1,0)	(1,0)	(1,0)	(1,0)	
L1D -218>	(1,0)	(1,0)	(1,0)	(1,0)	(1,0)	(1,0)	(1,0)	(1,0)	(1,0)	(1,0)	(1,0)	(1,0)	(1,0)	(1,0)	(1,0)	(1,0)	
L1D -217>	(32,1)	(1,0)	(1,0)	(1,0)	(1,0)	(1,0)	(1,0)	(1,0)	(1,0)	(1,0)	(1,0)	(1,0)	(1,0)	(1,0)	(1,0)	(1,0)	
L1D -216>	(1,0)	(1,0)	(1,0)	(1,0)	(1,0)	(1,0)	(1,0)	(1,0)	(1,0)	(1,0)	(1,0)	(1,0)	(1,0)	(1,0)	(1,0)	(1,0)	
L1D -215>	(98,24)	(2,1)	(1,0)	(1,0)	(1,0)	(1,0)	(1,0)	(1,0)	(1,0)	(1,0)	(1,0)	(1,0)	(1,0)	(1,0)	(1,0)	(1,0)	
L1D -214>	(1,0)	(1,0)	(1,0)	(1,0)	(1,0)	(1,0)	(1,0)	(1,0)	(1,0)	(1,0)	(1,0)	(1,0)	(1,0)	(1,0)	(1,0)	(1,0)	
L1D -213>	(1,0)	(1,0)	(1,0)	(1,0)	(1,0)	(1,0)	(1,0)	(1,0)	(1,0)	(1,0)	(1,0)	(1,0)	(1,0)	(1,0)	(1,0)	(1,0)	
L1D -212>	(1,0)	(1,0)	(1,0)	(1,0)	(1,0)	(1,0)	(1,0)	(1,0)	(1,0)	(1,0)	(1,0)	(1,0)	(1,0)	(1,0)	(1,0)	(1,0)	
L1D -211>	(1,0)	(1,0)	(1,0)	(1,0)	(1,0)	(1,0)	(1,0)	(1,0)	(1,0)	(1,0)	(1,0)	(1,0)	(1,0)	(1,0)	(1,0)	(1,0)	
L1D -210>	(1,0)	(1,0)	(1,0)	(1,0)	(1,0)	(1,0)	(1,0)	(1,0)	(1,0)	(1,0)	(1,0)	(1,0)	(1,0)	(1,0)	(1,0)	(1,0)	
L1D -209>	(2,1)	(1,0)	(1,0)	(1,0)	(1,0)	(1,0)	(1,0)	(1,0)	(1,0)	(1,0)	(1,0)	(1,0)	(1,0)	(1,0)	(1,0)	(1,0)	
L1D -208>	(1,0)	(1,0)	(1,0)	(1,0)	(1,0)	(1,0)	(1,0)	(1,0)	(1,0)	(1,0)	(1,0)	(1,0)	(1,0)	(1,0)	(1,0)	(1,0)	
L1D -207>	(1,0)	(1,0)	(1,0)	(1,0)	(1,0)	(1,0)	(1,0)	(1,0)	(1,0)	(1,0)	(1,0)	(1,0)	(1,0)	(1,0)	(1,0)	(1,0)	
L1D -206>	(43,1)	(1,0)	(1,0)	(1,0)	(1,0)	(1,0)	(1,0)	(1,0)	(1,0)	(1,0)	(1,0)	(1,0)	(1,0)	(1,0)	(1,0)	(1,0)	
L1D -205>	(2,1)	(1,0)	(1,0)	(1,0)	(1,0)	(1,0)	(1,0)	(1,0)	(1,0)	(1,0)	(1,0)	(1,0)	(1,0)	(1,0)	(1,0)	(1,0)	
L1D -204>	(1,0)	(1,0)	(1,0)	(1,0)	(1,0)	(1,0)	(1,0)	(1,0)	(1,0)	(1,0)	(1,0)	(1,0)	(1,0)	(1,0)	(1,0)	(1,0)	
L1D -203>	(204,1)	(1,0)	(1,0)	(1,0)	(1,0)	(1,0)	(1,0)	(1,0)	(1,0)	(1,0)	(1,0)	(1,0)	(1,0)	(1,0)	(1,0)	(1,0)	
L1D -202>	(1,4)	(1,0)	(1,0)	(1,0)	(1,0)	(1,0)	(1,0)	(1,0)	(1,0)	(1,0)	(1,0)	(1,0)	(1,0)	(1,0)	(1,0)	(1,0)	
L1D -201>	(177,1)	(200,1)	(25,1)	(1,0)	(1,0)	(1,0)	(1,0)	(1,0)	(1,0)	(1,0)	(1,0)	(1,0)	(1,0)	(1,0)	(1,0)	(1,0)	
L1D -200>	(201,1)	(23,1)	(178,4)	(198,4)	(24,3)	(1,0)	(1,0)	(1,0)	(1,0)	(1,0)	(1,0)	(1,0)	(1,0)	(1,0)	(1,0)	(1,0)	
L1D -199>	(1,1)	(198,3)	(1,0)	(1,0)	(1,0)	(1,0)	(1,0)	(1,0)	(1,0)	(1,0)	(1,0)	(1,0)	(1,0)	(1,0)	(1,0)	(1,0)	
L1D -198>	(1,1)	(177,2)	(1,0)	(1,0)	(1,0)	(1,0)	(1,0)	(1,0)	(1,0)	(1,0)	(1,0)	(1,0)	(1,0)	(1,0)	(1,0)	(1,0)	
L1D -197>	(1,26)	(21,4)	(2,7)	(177,3)	(196,1)	(1,0)	(1,0)	(1,0)	(1,0)	(1,0)	(1,0)	(1,0)	(1,0)	(1,0)	(1,0)	(1,0)	
L1D -196>	(197,1)	(-1,1)	(20,5)	(177,1)	(1,0)	(1,0)	(1,0)	(1,0)	(1,0)	(1,0)	(1,0)	(1,0)	(1,0)	(1,0)	(1,0)	(1,0)	
L1D -195>	(197,3)	(180,1)	(194,4)	(19,3)	(177,1)	(1,0)	(1,0)	(1,0)	(1,0)	(1,0)	(1,0)	(1,0)	(1,0)	(1,0)	(1,0)	(1,0)	
L1D -194>	(11,2)	(18,6)	(177,2)	(1,0)	(1,0)	(1,0)	(1,0)	(1,0)	(1,0)	(1,0)	(1,0)	(1,0)	(1,0)	(1,0)	(1,0)	(1,0)	
L1D -193>	(17,2)	(1,15)	(193,9)	(192,1)	(177,2)	(1,0)	(1,0)	(1,0)	(1,0)	(1,0)	(1,0)	(1,0)	(1,0)	(1,0)	(1,0)	(1,0)	
L1D -192>	(1,4)	(16,6)	(197,1)	(177,3)	(178,1)	(1,0)	(1,0)	(1,0)	(1,0)	(1,0)	(1,0)	(1,0)	(1,0)	(1,0)	(1,0)	(1,0)	
L1D -191>	(177,8)	(196,1)	(190,1)	(16,2)	(15,4)	(179,1)	(1,0)	(1,0)	(1,0)	(1,0)	(1,0)	(1,0)	(1,0)	(1,0)	(1,0)	(1,0)	
L1D -190>	(6,8)	(191,1)	(2,2)	(189,3)	(14,1)	(13,1)	(177,1)	(11,1)	(1,0)	(1,0)	(1,0)	(1,0)	(1,0)	(1,0)	(1,0)	(1,0)	
L1D -189>	(1,5)	(13,2)	(195,1)	(188,1)	(1,0)	(1,0)	(1,0)	(1,0)	(1,0)	(1,0)	(1,0)	(1,0)	(1,0)	(1,0)	(1,0)	(1,0)	
L1D -188>	(187,3)	(12,2)	(43,1)	(190,3)	(44,38)	(13,1)	(188,5)	(1,3)	(11,2)	(179,1)	(1,0)	(1,0)	(1,0)	(1,0)	(1,0)	(1,0)	
L1D -187>	(43,1)	(11,5)	(188,1)	(44,1)	(10,1)	(176,1)	(12,2)	(1,0)	(1,0)	(1,0)	(1,0)	(1,0)	(1,0)	(1,0)	(1,0)	(1,0)	
L1D -186>	(1,2)	(184,5)	(2,9)	(185,11)	(10,1)	(9,2)	(12,2)	(1,0)	(1,0)	(1,0)	(1,0)	(1,0)	(1,0)	(1,0)	(1,0)	(1,0)	
L1D -185>	(1,24)	(184,1)	(9,3)	(185,3)	(177,8)	(1,0)	(1,0)	(1,0)	(1,0)	(1,0)	(1,0)	(1,0)	(1,0)	(1,0)	(1,0)	(1,0)	
L1D -184>	(8,11)	(0,1)	(177,2)	(1,0)	(1,0)	(1,0)	(1,0)	(1,0)	(1,0)	(1,0)	(1,0)	(1,0)	(1,0)	(1,0)	(1,0)	(1,0)	
L1D -183>	(190,1)	(8,2)	(7,1)	(9,1)	(177,1)	(179,1)	(1,0)	(1,0)	(1,0)	(1,0)	(1,0)	(1,0)	(1,0)	(1,0)	(1,0)	(1,0)	
L1D -182>	(2,1)	(175,1)	(6,9)	(177,1)	(169,2)	(5,2)	(178,1)	(165,1)	(181,1)	(187,1)	(7,1)	(1,0)	(1,0)	(1,0)	(1,0)	(1,0)	
L1D -181>	(5,2)	(175,8)	(176,2)	(168,1)	(178,1)	(2,1)	(185,2)	(1,0)	(1,0)	(1,0)	(1,0)	(1,0)	(1,0)	(1,0)	(1,0)	(1,0)	
L1D -180>	(175,4)	(4,1)	(165,1)	(163,1)	(176,3)	(169,1)	(184,1)	(179,1)	(166,1)	(164,1)	(182,1)	(1,0)	(1,0)	(1,0)	(1,0)	(1,0)	
L1D -179>	(3,1)	(168,1)	(173,3)	(177,5)	(171,2)	(175,3)	(182,1)	(174,5)	(176,1)	(1,1)	(163,3)	(165,1)	(-2,1)	(170,1)	(1,0)	(1,0)	
L1D -178>	(166,1)	(176,4)	(174,4)	(175,8)	(-1,14)	(165,2)	(173,3)	(184,1)	(169,1)	(164,3)	(-9,1)	(161,1)	(170,1)	(-2,1)	(-7,1)	(168,1)	
L1D -177>	(-2,4)	(-1,16)	(174,5)	(173,7)	(171,11)	(175,15)	(169,1)	(-15,2)	(172,3)	(170,3)	(164,4)	(-3,1)	(159,1)	(166,1)	(168,6)	(186,1)	
L1D -176>	(175,71)	(180,24)	(173,41)	(179,18)	(174,59)	(178,20)	(-5,1)	(177,36)	(165,8)	(187,11)	(170,16)	(169,12)	(171,15)	(172,5)	(162,15)	(189,5)	
L1D -175>	(169,2)	(1,2)	(-1,40)	(178,10)	(181,2)	(179,2)	(-6,1)	(177,5)	(161,2)	(9,3)	(185,1)	(183,5)	(173,6)	(165,4)	(186,1)	(180,2)	
L1D -174>	(179,5)	(175,14)	(1,2)	(176,3)	(190,1)	(160,2)	(177,9)	(-4,2)	(174,7)	(-2,6)	(169,1)	(178,25)	(172,5)	(186,1)	(4,1)	(184,5)	
L1D -173>	(175,8)	(179,1)	(-3,4)	(316,4)	(177,8)	(-2,1)	(174,4)	(181,2)	(178,2)	(173,1)	(171,2)	(176,1)	(-6,1)	(1,2)	(164,1)	(180,1)	
L1D -172>	(164,1)	(171,36)	(173,3)	(-4,2)	(166,1)	(175,3)	(176,3)	(174,4)	(177,3)	(4,1)	(159,1)	(182,1)	(169,1)	(180,1)	(178,1)	(-3,1)	
L1D -171>	(175,1)	(172,1)	(178,1)	(177,1)	(-3,1)	(181,1)	(189,1)	(173,5)	(-2,1)	(167,1)	(163,1)	(157,1)	(1,0)	(1,0)	(1,0)	(1,0)	
L1D -170>	(-6,2)	(183,1)	(171,2)	(169,27)	(178,3)	(172,4)	(184,1)	(182,1)	(175,1)	(186,1)	(179,1)	(1,0)	(1,0)	(1,0)	(1,0)	(1,0)	
L1D -169>	(-7,3)	(170,3)	(2,122)	(1,5)	(182,1)	(76,1)	(178,2)	(-2,2)	(171,2)	(187,1)	(175,1)	(-4,1)	(1,0)	(1,0)	(1,0)	(1,0)	
L1D -168>	(169,1)	(184,1)	(1,4)	(-1,2)	(176,3)	(170,4)	(171,1)	(181,2)	(-7,2)	(175,2)	(-4,1)	(1,0)	(1,0)	(1,0)	(1,0)	(1,0)	
L1D -167>	(175,2)	(166,80)	(168,2)	(1,14)	(177,1)	(-9,2)	(170,1)	(-2,1)	(169,6)	(185,1)	(172,1)	(176,1)	(-8,1)	(-7,1)	(181,1)	(-1,1)	
L1D -166>	(-10,10)	(175,6)	(1,1)	(-1,5)	(176,2)	(1,0)	(1,0)	(1,0)	(1,0)	(1,0)	(1,0)	(1,0)	(1,0)	(1,0)	(1,0)	(1,0)	
L1D -165>	(166,3)	(175,5)	(72,4)	(-11,1)	(189,2)	(187,1)	(167,3)	(-2,1)	(1,0)	(1,0)	(1,0)	(1,0)	(1,0)	(1,0)	(1,0)	(1,0)	
L1D -164>	(165,3)	(175,6)	(-12,9)	(-11,2)	(166,1)	(-1,1)	(167,1)	(1,0)	(1,0)	(1,0)	(1,0)	(1,0)	(1,0)	(1,0)	(1,0)	(1,0)	
L1D -163>	(164,5)	(165,8)	(-1,1)	(-13,1)	(184,2)	(-12,2)	(189,1)	(-11,1)	(175,2)	(186,1)	(174,1)	(187,1)	(1,0)	(1,0)	(1,0)	(1,0)	
L1D -162>	(163,3)	(-14,3)	(1,1)	(166,4)	(190,1)	(172,4)	(164,4)	(175,1)	(76,1)	(176,1)	(173,1)	(1,0)	(1,0)	(1,0)	(1,0)	(1,0)	
L1D -161>	(162,3)	(-15,5)	(175,4)	(163,15)	(172,4)	(174,2)	(-14,2)	(169,1)	(1,0)	(1,0)	(1,0)	(1,0)	(1,0)	(1,0)	(1,0)	(1,0)	
L1D -160>	(157,1)	(-1,3)	(161,1)	(-13,2)	(174,2)	(2,1)	(1,0)	(1,0)	(1,0)	(1,0)	(1,0)	(1,0)	(1,0)	(1,0)	(1,0)	(1,0)	
L1D -159>	(2,1)	(172,1)	(175,3)	(161,3)	(-3,2)	(186,1)	(174,3)	(-2,1)	(1,0)	(1,0)	(1,0)	(1,0)	(1,0)	(1,0)	(1,0)	(1,0)	
L1D -158>	(1,1)	(175,3)	(118,1)	(-18,3)	(-1,3)	(-35,1)	(174,1)	(1,0)	(1,0)	(1,0)	(1,0)	(1,0)	(1,0)	(1,0)	(1,0)	(1,0)	
L1D -157>	(118,4)	(-19,1)	(174,1)	(1,0)	(1,0)	(1,0)	(1,0)	(1,0)	(1,0)	(1,0)	(1,0)	(1,0)	(1,0)	(1,0)	(1,0)	(1,0)	
L1D -156>	(0,5)	(64,4)	(159,2)	(174,1)	(175,1)	(152,1)	(1,0)	(1,0)	(1,0)	(1,0)	(1,0)	(1,0)	(1,0)	(1,0)	(1,0)	(1,0)	
L1D -155>	(-21,1)	(-20,2)	(1,0)	(1,0)	(1,0)	(1,0)	(1,0)	(1,0)	(1,0)	(1,0)	(1,0)	(1,0)	(1,0)	(1,0)	(1,0)	(1,0)	
L1D -154>	(94,7)	(88,0)	(153,75)	(-20,1)	(93,8)	(150,0)	(92,1)	(-1,1)	(152,2)	(90,0)	(143,0)	(148,3)	(146,0)	(1,0)	(1,0)	(1,0)	
L1D -153>	(93,41)	(157,3)	(145,1)	(139,1)	(91,4)	(161,1)	(151,1)	(152,1)	(94,2)	(153,3)	(85,1)	(-22,1)	(78,4)	(150,1)	(-23,1)	(89,1)	
L1D -152>	(92,21)	(79,2)	(93,15)	(150,3)	(149,1)	(-1,2)	(137,2)	(89,1)	(175,1)	(91,1)	(139,1)	(145,2)	(151,1)	(143,1)	(1,0)	(1,0)	
L1D -151>	(91,7)	(150,3)	(152,1)	(88,1)	(140,3)	(13,1)	(142,1)	(154,1)	(89,2)	(149,2)	(145,2)	(82,1)	(134,1)	(90,1)	(139,1)	(1,0)	
L1D -150>	(90,12)	(148,1)	(142,2)	(134,2)	(141,2)	(147,1)	(91,4)	(139,1)	(73,2)	(89,3)	(2,2)	(87,1)	(88,2)	(138,1)	(154,4)	(144,1)	
L1D -149>	(145,2)	(152,1)	(89,1)	(87,2)	(138,5)	(11,4)	(90,1)	(136,1)	(140,2)	(139,1)	(-1,1)	(1,0)	(1,0)	(1,0)	(1,0)	(1,0)	
L1D -148>	(147,37)	(56,43)	(88,2)	(94,1)	(146,3)	(151,6)	(90,4)	(93,2)	(148,6)	(145,5)	(-1,1)	(10,2)	(144,1)	(-3,3)	(139,1)	(137,1)	
L1D -147>	(146,5)	(-1,1)	(141,1)	(1,5)	(148,3)	(133,3)	(154,3)	(89,3)	(88,1)	(8,1)	(90,1)	(143,2)	(140,1)	(142,1)	(145,1)	(153,1)	
L1D -146>	(145,7)	(-1,8)	(-2,3)	(104,61)	(148,1)	(130,2)	(154,3)	(98,2)	(103,10)	(88,4)	(93,2)	(133,2)	(140,2)	(135,2)	(144,2)	(141,1)	
L1D -145>	(143,3)	(56,4)	(103,21)	(141,1)	(7,6)	(1,2)	(-2,3)	(144,2)	(154,4)	(140,1)	(-1,2)	(96,3)	(104,4)	(99,1)	(133,3)	(6,1)	
L1D -144>	(-1,3)	(102,20)	(144,4)	(11,2)	(6,5)	(5,1)	(143,8)	(104,6)	(177,4)	(140,2)	(86,2)	(1,16)	(7,2)	(155,5)	(-50,3)	(145,1)	
L1D -143>	(-1,4)	(142,5)	(147,3)	(101,3)	(145,4)	(141,4)	(-5,7)	(132,4)	(129,1)	(-4,1)	(100,3)	(144,5)	(103,4)	(137,2)	(97,1)	(94,1)	
L1D -142>	(100,12)	(144,4)	(139,1)	(82,2)	(97,2)	(83,1)	(141,4)	(84,3)	(85,2)	(140,2)	(136,36)	(138,8)	(137,11)	(-4,3)	(103,2)	(127,2)	
L1D -141>	(85,1)	(-1,3)	(99,4)	(79,1)	(98,3)	(137,4)	(102,1)	(139,17)	(133,1)	(100,6)	(136,7)	(3,8)	(-7,2)	(130,2)	(128,3)	(103,2)	
L1D -140>	(98,2)	(-4,2)	(153,2)	(154,4)	(137,14)	(99,1)	(89,1)	(100,2)	(136,1)	(132,2)	(-11,1)	(133,1)	(-1,1)	(146,2)	(134,2)	(125,3)	
L1D -139>	(142,5)	(126,1)	(91,2)	(137,10)	(139,1)	(141,2)	(79,3)	(146,2)	(90,1)	(136,28)	(1,19)	(134,3)	(140,1)	(127,3)	(130,4)	(138,13)	
L1D -138>	(137,84)	(138,34)	(141,38)	(136,55)	(133,12)	(139,76)	(-1,18)	(143,30)	(135,33)	(140,84)	(134,36)	(142,12)	(-35,1)	(145,9)	(146,9)	(131,12)	
L1D -137>	(9,1)	(95,2)	(78,1)	(96,1)	(-3,2)	(1,4)	(125,1)	(138,53)	(3,7)	(136,3)	(140,4)	(137,5)	(2,4)	(131,3)	(4,2)	(139,10)	
L1D -136>	(136,11)	(139,4)	(140,3)	(134,3)	(1,16)	(-2,6)	(44,28)	(2,6)	(138,5)	(135,2)	(127,4)	(142,4)	(3,1)	(137,5)	(131,1)	(97,2)	
L1D -135>	(124,2)	(144,1)	(137,4)	(130,1)	(92,1)	(143,2)	(2,41)	(3,1)	(133,5)	(154,2)	(96,2)	(138,5)	(-2,2)	(134,1)	(97,1)	(136,1)	
L1D -134>	(121,5)	(133,49)	(132,26)	(130,7)	(-1,39)	(124,4)	(100,1)	(-4,3)	(129,10)	(92,48)	(87,3)	(111,27)	(119,9)	(122,15)	(128,13)	(131,22)	
L1D -133>	(132,17)	(133,3)	(131,11)	(-1,16)	(55,2)	(91,25)	(119,3)	(134,2)	(146,2)	(90,3)	(140,3)	(73,4)	(129,2)	(135,1)	(92,4)	(51,5)	
L1D -132>	(90,15)	(126,4)	(133,19)	(-1,9)	(129,4)	(131,16)	(134,3)	(72,7)	(88,2)	(125,2)	(120,2)	(130,4)	(92,2)	(128,3)	(145,3)	(100,1)	
L1D -131>	(130,6)	(-1,5)	(89,8)	(129,4)	(134,1)	(17,1)	(126,4)	(133,5)	(91,2)	(125,4)	(122,3)	(98,3)	(148,5)	(154,3)	(146,2)	(92,1)	
L1D -130>	(88,9)	(129,5)	(124,6)	(126,1)	(123,3)	(125,11)	(131,6)	(99,1)	(4,2)	(73,2)	(122,3)	(132,4)	(87,3)	(133,15)	(-8,1)	(6,6)	
L1D -129>	(154,4)	(125,1)	(130,2)	(102,1)	(99,2)	(88,2)	(134,3)	(127,3)	(124,2)	(117,2)	(133,6)	(98,1)	(-9,4)	(119,3)	(131,6)	(90,1)	
L1D -128>	(145,1)	(132,2)	(123,1)	(96,1)	(130,1)	(1,1)	(126,1)	(133,13)	(154,2)	(87,3)	(134,4)	(120,2)	(79,1)	(99,2)	(131,2)	(137,2)	
L1D -127>	(121,2)	(132,3)	(154,2)	(131,9)	(67,1)	(128,1)	(124,1)	(127,2)	(88,1)	(135,2)	(92,1)	(-11,1)	(134,7)	(129,3)	(87,1)	(117,1)	
L1D -126>	(127,3)	(131,2)	(84,44)	(121,7)	(116,2)	(132,4)	(123,9)	(134,4)	(120,10)	(125,26)	(-1,14)	(119,25)	(111,25)	(124,11)	(122,3)	(129,1)	
L1D -125>	(83,17)	(124,23)	(123,13)	(117,5)	(121,5)	(122,9)	(4,1)	(118,2)	(126,2)	(125,7)	(43,9)	(-1,12)	(66,7)	(84,3)	(8,1)	(119,5)	
L1D -124>	(1,5)	(82,25)	(123,3)	(122,9)	(117,2)	(120,5)	(125,10)	(2,2)	(116,4)	(4,2)	(-1,15)	(134,11)	(121,3)	(140,1)	(128,3)	(130,3)	
L1D -123>	(143,1)	(-1,11)	(130,2)	(124,16)	(118,1)	(125,9)	(2,6)	(81,22)	(122,3)	(83,3)	(121,5)	(132,9)	(142,3)	(123,1)	(146,1)	(1,118)	
L1D -122>	(121,8)	(125,12)	(123,3)	(117,5)	(80,8)	(142,1)	(4,11)	(2,4)	(-1,7)	(120,11)	(133,5)	(6,24)	(115,1)	(78,5)	(122,3)	(89,2)	
L1D -121>	(122,9)	(2,5)	(134,2)	(119,8)	(121,16)	(123,10)	(-1,7)	(82,2)	(124,5)	(120,2)	(133,7)	(79,20)	(114,2)	(118,7)	(80,3)	(77,3)	
L1D -120>	(133,10)	(153,7)	(132,2)	(134,6)	(6,3)	(117,4)	(78,2)	(122,1)	(75,1)	(125,3)	(140,1)	(113,3)	(120,4)	(-1,8)	(146,3)	(123,3)	
L1D -119>	(120,9)	(122,2)	(117,19)	(116,7)	(114,1)	(78,1)	(79,3)	(126,1)	(134,4)	(77,6)	(-1,11)	(121,5)	(124,2)	(125,7)	(76,1)	(123,2)	
L1D -118>	(115,27)	(119,9)	(4,4)	(76,27)	(75,2)	(121,2)	(120,3)	(-1,57)	(2,35)	(113,18)	(117,69)	(134,6)	(114,31)	(111,30)	(116,49)	(80,1)	
L1D -117>	(84,4)	(115,3)	(116,9)	(-55,3)	(118,5)	(-1,4)	(75,12)	(35,44)	(111,2)	(119,5)	(114,6)	(121,7)	(34,6)	(134,1)	(80,4)	(120,2)	
L1D -116>	(42,2)	(74,25)	(118,43)	(36,5)	(115,5)	(114,6)	(84,3)	(111,15)	(117,29)	(-1,16)	(121,3)	(109,13)	(76,4)	(116,1)	(2,1)	(119,1)	
L1D -115>	(-38,1)	(-1,6)	(116,7)	(55,45)	(2,2)	(54,1)	(117,6)	(73,7)	(115,1)	(118,4)	(1,0)	(1,0)	(1,0)	(1,0)	(1,0)	(1,0)	
L1D -114>	(111,41)	(2,4)	(115,2)	(114,2)	(72,1)	(44,11)	(117,3)	(76,3)	(118,1)	(1,0)	(1,0)	(1,0)	(1,0)	(1,0)	(1,0)	(1,0)	
L1D -113>	(112,2)	(111,1)	(114,1)	(84,69)	(42,21)	(100,1)	(118,4)	(2,2)	(116,1)	(1,0)	(1,0)	(1,0)	(1,0)	(1,0)	(1,0)	(1,0)	
L1D -112>	(109,3)	(1,0)	(1,0)	(1,0)	(1,0)	(1,0)	(1,0)	(1,0)	(1,0)	(1,0)	(1,0)	(1,0)	(1,0)	(1,0)	(1,0)	(1,0)	
L1D -111>	(112,2)	(-2,2)	(1,0)	(1,0)	(1,0)	(1,0)	(1,0)	(1,0)	(1,0)	(1,0)	(1,0)	(1,0)	(1,0)	(1,0)	(1,0)	(1,0)	
L1D -110>	(111,15)	(2,2)	(1,0)	(1,0)	(1,0)	(1,0)	(1,0)	(1,0)	(1,0)	(1,0)	(1,0)	(1,0)	(1,0)	(1,0)	(1,0)	(1,0)	
L1D -109>	(109,1)	(112,1)	(1,0)	(1,0)	(1,0)	(1,0)	(1,0)	(1,0)	(1,0)	(1,0)	(1,0)	(1,0)	(1,0)	(1,0)	(1,0)	(1,0)	
L1D -108>	(43,1)	(109,2)	(98,1)	(106,1)	(1,0)	(1,0)	(1,0)	(1,0)	(1,0)	(1,0)	(1,0)	(1,0)	(1,0)	(1,0)	(1,0)	(1,0)	
L1D -107>	(49,1)	(1,5)	(64,1)	(24,1)	(65,104)	(43,0)	(2,0)	(-19,0)	(-15,0)	(1,0)	(1,0)	(1,0)	(1,0)	(1,0)	(1,0)	(1,0)	
L1D -106>	(1,101)	(-34,1)	(108,1)	(-12,1)	(107,1)	(1,0)	(1,0)	(1,0)	(1,0)	(1,0)	(1,0)	(1,0)	(1,0)	(1,0)	(1,0)	(1,0)	
L1D -105>	(67,1)	(4,1)	(7,90)	(103,1)	(1,1)	(139,1)	(2,1)	(1,0)	(1,0)	(1,0)	(1,0)	(1,0)	(1,0)	(1,0)	(1,0)	(1,0)	
L1D -104>	(143,10)	(101,3)	(128,3)	(87,1)	(44,1)	(103,21)	(-1,14)	(145,10)	(141,8)	(142,5)	(120,1)	(125,3)	(102,15)	(144,15)	(99,1)	(96,6)	
L1D -103>	(-1,8)	(144,12)	(143,4)	(105,2)	(99,1)	(119,1)	(141,1)	(67,1)	(102,8)	(0,5)	(131,1)	(122,1)	(130,1)	(63,18)	(138,2)	(146,3)	
L1D -102>	(143,13)	(104,2)	(133,3)	(141,2)	(145,14)	(98,1)	(146,7)	(142,1)	(103,5)	(90,2)	(139,4)	(102,1)	(100,2)	(144,5)	(130,2)	(-1,4)	
L1D -101>	(140,3)	(88,1)	(136,1)	(144,1)	(145,8)	(-1,1)	(142,5)	(97,1)	(141,3)	(100,3)	(102,10)	(128,1)	(103,1)	(143,1)	(146,3)	(98,1)	
L1D -100>	(141,15)	(98,1)	(144,1)	(102,4)	(-1,3)	(124,1)	(104,1)	(1,2)	(143,4)	(131,2)	(145,11)	(135,4)	(142,4)	(140,1)	(95,2)	(99,1)	
L1D -99>	(141,7)	(101,18)	(140,2)	(142,4)	(125,2)	(145,3)	(98,2)	(138,1)	(102,1)	(104,1)	(143,1)	(146,1)	(103,1)	(139,1)	(133,1)	(137,1)	
L1D -98>	(1,2)	(95,3)	(101,3)	(145,2)	(100,1)	(104,3)	(141,7)	(140,5)	(135,4)	(93,2)	(94,2)	(139,1)	(84,1)	(142,5)	(-1,1)	(143,1)	
L1D -97>	(95,37)	(-26,23)	(102,5)	(101,2)	(-1,32)	(89,1)	(98,2)	(1,19)	(140,4)	(138,2)	(142,3)	(130,1)	(99,5)	(132,2)	(141,4)	(93,2)	
L1D -96>	(-29,58)	(100,0)	(2,0)	(127,0)	(130,0)	(141,0)	(146,0)	(125,0)	(139,0)	(-1,0)	(102,0)	(-26,0)	(104,0)	(17,102)	(143,0)	(144,0)	
L1D -95>	(-29,20)	(146,3)	(141,2)	(96,7)	(137,2)	(84,2)	(125,2)	(145,1)	(136,1)	(150,30)	(97,5)	(102,1)	(91,1)	(139,5)	(100,3)	(94,2)	
L1D -94>	(51,43)	(137,8)	(153,14)	(1,60)	(92,19)	(93,13)	(90,8)	(89,6)	(52,30)	(-1,9)	(50,4)	(15,14)	(135,12)	(146,8)	(152,22)	(154,26)	
L1D -93>	(-29,0)	(4,0)	(152,0)	(49,0)	(-1,0)	(33,0)	(92,9)	(99,1)	(1,0)	(51,0)	(2,0)	(93,99)	(90,46)	(0,77)	(102,0)	(91,0)	
L1D -92>	(13,0)	(1,0)	(51,0)	(133,0)	(89,0)	(91,0)	(151,0)	(46,0)	(-1,0)	(132,0)	(50,0)	(93,37)	(90,83)	(131,0)	(125,0)	(147,0)	
L1D -91>	(75,2)	(150,10)	(93,5)	(84,4)	(90,4)	(-1,23)	(1,10)	(49,4)	(148,2)	(153,9)	(51,3)	(132,5)	(130,6)	(43,1)	(55,1)	(134,5)	
L1D -90>	(131,0)	(0,22)	(-1,0)	(91,0)	(133,0)	(88,0)	(47,0)	(48,0)	(-2,1)	(118,0)	(89,0)	(134,0)	(145,0)	(93,115)	(130,0)	(146,0)	
L1D -89>	(94,9)	(131,4)	(148,3)	(130,9)	(133,15)	(84,11)	(91,8)	(132,11)	(146,5)	(10,28)	(153,6)	(47,6)	(90,9)	(85,7)	(89,1)	(-1,6)	
L1D -88>	(0,54)	(90,8)	(129,3)	(47,12)	(146,7)	(131,3)	(-1,7)	(89,11)	(52,6)	(51,5)	(91,1)	(1,76)	(46,2)	(133,12)	(93,4)	(84,3)	
L1D -87>	(94,3)	(153,2)	(89,9)	(83,1)	(130,8)	(88,3)	(1,22)	(151,1)	(82,3)	(154,2)	(133,4)	(144,2)	(146,10)	(143,3)	(132,2)	(52,3)	
L1D -86>	(153,2)	(51,1)	(87,2)	(94,4)	(91,1)	(145,1)	(147,1)	(49,2)	(45,2)	(-1,0)	(17,77)	(1,1)	(21,0)	(127,1)	(26,0)	(146,2)	
L1D -85>	(25,2)	(150,2)	(86,6)	(127,4)	(128,8)	(131,4)	(43,4)	(17,9)	(143,3)	(44,5)	(154,4)	(48,1)	(94,7)	(90,5)	(89,2)	(81,5)	
L1D -84>	(81,5)	(151,4)	(125,8)	(158,18)	(146,8)	(15,16)	(1,3)	(0,6)	(127,3)	(154,9)	(43,3)	(129,4)	(83,14)	(82,9)	(94,5)	(79,3)	
L1D -83>	(82,51)	(1,17)	(78,5)	(123,8)	(-1,15)	(84,9)	(138,19)	(32,2)	(154,7)	(144,3)	(81,2)	(125,7)	(2,2)	(4,14)	(124,12)	(79,10)	
L1D -82>	(6,115)	(1,18)	(83,9)	(94,3)	(-1,22)	(81,2)	(125,6)	(13,12)	(122,1)	(123,3)	(2,13)	(77,3)	(79,3)	(4,55)	(131,2)	(44,1)	
L1D -81>	(80,1)	(83,7)	(124,11)	(79,14)	(82,11)	(91,6)	(152,4)	(142,5)	(-1,40)	(123,7)	(2,3)	(76,3)	(1,5)	(125,16)	(84,4)	(78,28)	
L1D -80>	(1,13)	(124,7)	(81,7)	(123,7)	(2,9)	(131,3)	(154,3)	(125,6)	(38,4)	(75,4)	(91,2)	(-1,3)	(84,5)	(146,7)	(-2,29)	(31,12)	
L1D -79>	(10,1)	(37,0)	(111,0)	(124,0)	(122,0)	(123,0)	(76,0)	(31,0)	(154,0)	(78,0)	(81,0)	(1,113)	(-14,11)	(120,0)	(-1,0)	(121,0)	
L1D -78>	(73,2)	(1,2)	(139,4)	(-1,10)	(78,4)	(152,4)	(77,3)	(121,7)	(8,1)	(89,1)	(127,1)	(81,4)	(120,3)	(0,1)	(2,4)	(4,2)	
L1D -77>	(17,7)	(138,3)	(1,37)	(78,7)	(92,3)	(120,8)	(36,3)	(121,4)	(72,3)	(73,10)	(93,2)	(-1,5)	(365,2)	(79,22)	(82,5)	(146,3)	
L1D -76>	(154,5)	(137,3)	(80,3)	(77,13)	(75,33)	(73,16)	(134,24)	(115,6)	(74,9)	(117,8)	(84,1)	(2,5)	(-1,16)	(41,3)	(119,3)	(116,3)	
L1D -75>	(2,34)	(77,12)	(76,4)	(61,7)	(115,3)	(118,10)	(34,13)	(134,4)	(7,1)	(73,3)	(-1,5)	(94,8)	(116,3)	(11,2)	(113,6)	(154,5)	
L1D -74>	(69,20)	(114,3)	(75,56)	(73,11)	(-1,11)	(111,27)	(1,4)	(61,10)	(70,2)	(135,2)	(32,41)	(90,1)	(118,3)	(21,2)	(117,2)	(71,2)	
L1D -73>	(91,2)	(77,2)	(116,32)	(-1,7)	(134,6)	(74,11)	(31,5)	(132,2)	(94,1)	(71,3)	(75,7)	(21,21)	(118,25)	(128,23)	(88,1)	(131,2)	
L1D -72>	(93,4)	(74,3)	(133,3)	(94,1)	(12,3)	(153,1)	(115,1)	(131,2)	(-1,6)	(1,26)	(73,5)	(126,2)	(117,7)	(88,3)	(61,5)	(89,6)	
L1D -71>	(153,3)	(43,2)	(11,2)	(73,16)	(132,9)	(31,3)	(61,4)	(-1,12)	(1,2)	(90,1)	(154,3)	(152,2)	(133,5)	(30,1)	(94,3)	(115,5)	
L1D -70>	(32,2)	(94,3)	(1,5)	(154,4)	(25,4)	(42,3)	(362,35)	(3,1)	(71,6)	(73,2)	(10,2)	(28,2)	(69,19)	(21,10)	(127,1)	(7,7)	
L1D -69>	(1,72)	(26,0)	(130,0)	(-14,8)	(27,0)	(-83,0)	(131,0)	(94,0)	(21,0)	(132,0)	(32,0)	(70,0)	(126,0)	(73,0)	(69,0)	(61,0)	
L1D -68>	(154,0)	(64,0)	(-14,6)	(69,3)	(1,94)	(26,3)	(2,6)	(43,3)	(57,0)	(130,1)	(66,0)	(61,2)	(70,0)	(67,0)	(77,0)	(9,0)	
L1D -67>	(153,3)	(25,8)	(1,13)	(68,5)	(67,2)	(122,29)	(15,28)	(5,6)	(66,9)	(42,6)	(94,2)	(43,6)	(-3,2)	(63,2)	(9,2)	(128,7)	
L1D -66>	(6,7)	(68,3)	(23,2)	(43,19)	(24,21)	(21,24)	(22,1)	(25,1)	(64,4)	(4,4)	(63,4)	(42,1)	(94,3)	(62,5)	(26,2)	(-1,1)	
L1D -65>	(5,3)	(64,33)	(1,10)	(31,8)	(42,2)	(66,25)	(126,3)	(107,1)	(-1,2)	(2,3)	(23,21)	(13,30)	(73,2)	(-11,2)	(43,36)	(3,1)	
L1D -64>	(22,18)	(1,116)	(59,3)	(63,4)	(-30,2)	(-70,2)	(2,2)	(61,4)	(23,1)	(66,6)	(43,11)	(62,2)	(15,5)	(65,3)	(56,2)	(60,2)	
L1D -63>	(62,14)	(3,7)	(1,21)	(-1,10)	(61,6)	(63,5)	(21,24)	(15,1)	(43,29)	(60,7)	(-78,4)	(-91,4)	(58,6)	(-89,2)	(42,5)	(22,2)	
L1D -62>	(1,6)	(59,14)	(20,29)	(13,1)	(61,8)	(42,6)	(19,5)	(62,10)	(43,31)	(57,12)	(-80,2)	(-81,1)	(58,7)	(55,8)	(51,6)	(53,4)	
L1D -61>	(56,7)	(-93,1)	(43,8)	(19,48)	(60,15)	(42,8)	(13,2)	(63,3)	(62,5)	(58,2)	(57,4)	(46,3)	(59,40)	(-1,10)	(50,5)	(52,2)	
L1D -60>	(61,0)	(62,0)	(59,0)	(64,0)	(56,0)	(68,0)	(65,0)	(58,0)	(18,0)	(43,0)	(52,0)	(60,87)	(-1,0)	(71,0)	(67,0)	(53,0)	
L1D -59>	(17,50)	(60,13)	(43,20)	(58,27)	(-1,19)	(57,9)	(47,4)	(51,7)	(1,5)	(44,5)	(-4,17)	(42,10)	(59,10)	(64,11)	(38,5)	(53,1)	
L1D -58>	(16,109)	(60,10)	(43,14)	(57,23)	(-1,8)	(1,10)	(62,4)	(56,20)	(52,7)	(53,7)	(55,14)	(59,25)	(14,1)	(15,24)	(42,11)	(33,2)	
L1D -57>	(15,33)	(56,23)	(-1,7)	(61,19)	(43,31)	(54,10)	(-34,3)	(59,17)	(42,27)	(14,10)	(58,1)	(60,6)	(52,6)	(53,4)	(55,7)	(16,10)	
L1D -56>	(14,27)	(43,41)	(55,23)	(45,1)	(44,10)	(51,6)	(42,13)	(48,2)	(12,3)	(56,9)	(61,9)	(-4,3)	(59,16)	(1,12)	(60,6)	(57,8)	
L1D -55>	(13,121)	(42,35)	(59,6)	(60,11)	(2,1)	(14,14)	(1,6)	(54,10)	(12,16)	(11,12)	(58,15)	(-18,6)	(57,9)	(53,50)	(43,97)	(15,12)	
L1D -54>	(59,14)	(10,30)	(1,66)	(55,17)	(107,5)	(53,11)	(12,40)	(2,7)	(42,25)	(58,1)	(11,22)	(57,4)	(43,21)	(4,14)	(60,23)	(56,10)	
L1D -53>	(54,18)	(51,14)	(11,76)	(1,18)	(4,3)	(58,1)	(-7,2)	(2,3)	(12,5)	(9,9)	(42,27)	(94,4)	(10,27)	(43,23)	(-36,5)	(59,7)	
L1D -52>	(-8,2)	(-1,68)	(1,8)	(10,113)	(50,28)	(51,55)	(94,7)	(93,3)	(53,2)	(9,9)	(60,7)	(43,25)	(92,25)	(42,4)	(7,10)	(44,1)	
L1D -51>	(-1,32)	(53,12)	(52,38)	(9,36)	(39,50)	(50,36)	(1,24)	(-4,29)	(-9,8)	(49,22)	(76,1)	(59,13)	(42,14)	(7,11)	(56,24)	(92,12)	
L1D -50>	(51,85)	(52,14)	(1,18)	(8,27)	(48,21)	(50,48)	(49,15)	(-1,19)	(42,25)	(43,35)	(94,18)	(90,15)	(93,9)	(91,8)	(2,13)	(45,1)	
L1D -49>	(50,1)	(1,118)	(48,0)	(-1,0)	(51,0)	(49,4)	(47,2)	(7,1)	(2,0)	(12,34)	(43,2)	(42,0)	(5,1)	(46,58)	(90,0)	(45,18)	
L1D -48>	(-10,1)	(49,4)	(8,6)	(47,6)	(1,5)	(2,7)	(-1,115)	(6,7)	(42,2)	(52,2)	(50,6)	(29,35)	(3,6)	(48,15)	(89,2)	(46,30)	
L1D -47>	(48,25)	(46,21)	(-1,22)	(5,20)	(1,27)	(2,53)	(51,4)	(49,9)	(45,3)	(3,25)	(37,1)	(41,10)	(47,77)	(43,58)	(94,5)	(42,10)	
L1D -46>	(36,0)	(47,0)	(4,0)	(-1,2)	(1,15)	(48,0)	(46,0)	(45,0)	(43,0)	(2,0)	(51,0)	(12,64)	(41,0)	(42,0)	(29,0)	(40,0)	
L1D -45>	(42,4)	(44,4)	(46,5)	(1,31)	(-1,20)	(43,6)	(3,6)	(47,25)	(50,7)	(45,11)	(2,4)	(41,21)	(40,5)	(30,1)	(25,89)	(27,4)	
L1D -44>	(38,15)	(48,56)	(45,4)	(2,18)	(43,16)	(4,4)	(1,10)	(41,47)	(-1,40)	(25,6)	(44,117)	(42,19)	(40,61)	(26,16)	(37,12)	(47,6)	
L1D -43>	(2,17)	(44,11)	(-1,47)	(1,51)	(47,1)	(42,101)	(39,22)	(41,79)	(30,22)	(38,38)	(29,17)	(-4,7)	(37,25)	(35,23)	(40,88)	(6,37)	
L1D -42>	(28,15)	(-1,57)	(49,20)	(43,83)	(2,49)	(41,101)	(36,18)	(39,47)	(33,18)	(59,1)	(38,32)	(46,32)	(34,13)	(48,15)	(53,15)	(42,17)	
L1D -41>	(28,0)	(39,0)	(44,0)	(40,0)	(34,10)	(42,0)	(1,0)	(47,0)	(-3,1)	(3,0)	(43,0)	(31,0)	(2,0)	(94,0)	(49,0)	(27,90)	
L1D -40>	(26,100)	(43,11)	(39,19)	(-1,1)	(38,1)	(51,1)	(33,46)	(45,2)	(34,31)	(44,4)	(2,0)	(46,1)	(1,2)	(52,1)	(10,0)	(49,0)	
L1D -39>	(38,91)	(-1,11)	(6,4)	(-4,1)	(-83,1)	(-2,2)	(1,1)	(13,1)	(335,1)	(-3,6)	(39,3)	(41,2)	(36,1)	(42,4)	(4,4)	(35,1)	
L1D -38>	(92,5)	(-1,45)	(-4,20)	(37,27)	(41,48)	(36,15)	(50,2)	(39,26)	(-2,29)	(38,79)	(-44,3)	(23,5)	(43,16)	(-22,3)	(40,17)	(42,31)	
L1D -37>	(-10,0)	(38,0)	(-1,0)	(47,0)	(41,0)	(44,0)	(-5,0)	(42,0)	(5,28)	(94,0)	(39,0)	(-12,1)	(80,0)	(31,85)	(37,0)	(40,0)	
L1D -36>	(-1,28)	(41,33)	(35,37)	(36,86)	(7,8)	(37,19)	(-3,13)	(-6,16)	(38,14)	(94,19)	(42,24)	(40,9)	(-4,7)	(39,10)	(30,53)	(4,75)	
L1D -35>	(35,0)	(22,0)	(36,4)	(46,0)	(41,0)	(6,0)	(-14,70)	(32,6)	(16,4)	(-1,0)	(42,0)	(23,5)	(38,0)	(31,0)	(11,0)	(39,0)	
L1D -34>	(2,4)	(33,11)	(-8,8)	(35,94)	(-1,7)	(34,48)	(22,27)	(54,4)	(42,10)	(-7,11)	(38,5)	(37,4)	(24,0)	(41,6)	(36,6)	(13,38)	
L1D -33>	(32,18)	(-9,10)	(41,21)	(34,70)	(36,9)	(26,1)	(92,2)	(-1,12)	(42,17)	(-3,2)	(94,8)	(38,2)	(44,3)	(35,6)	(33,53)	(-8,1)	
L1D -32>	(31,0)	(-1,0)	(33,0)	(41,0)	(26,0)	(-10,0)	(0,0)	(42,0)	(48,0)	(32,0)	(1,0)	(-8,0)	(34,0)	(40,95)	(17,6)	(-11,0)	
L1D -31>	(30,23)	(1,10)	(-11,19)	(32,88)	(31,66)	(5,67)	(2,10)	(41,14)	(13,96)	(42,10)	(24,48)	(-1,32)	(35,1)	(33,15)	(8,29)	(4,14)	
L1D -30>	(8,0)	(29,0)	(3,0)	(31,1)	(-1,0)	(41,0)	(42,0)	(-11,0)	(35,5)	(30,0)	(-12,0)	(-10,0)	(5,16)	(-14,107)	(37,8)	(-23,1)	
L1D -29>	(-4,43)	(2,11)	(28,8)	(-3,1)	(5,69)	(3,2)	(19,58)	(-11,7)	(6,82)	(4,121)	(42,4)	(29,30)	(41,16)	(-1,10)	(31,20)	(-12,3)	
L1D -28>	(1,0)	(27,0)	(29,1)	(41,0)	(-1,0)	(18,0)	(7,0)	(-14,0)	(34,72)	(2,0)	(42,0)	(-13,0)	(69,0)	(-12,0)	(31,0)	(28,0)	
L1D -27>	(1,7)	(26,5)	(22,102)	(-51,3)	(28,4)	(41,1)	(32,14)	(-8,82)	(27,23)	(29,7)	(-1,6)	(8,32)	(-15,5)	(6,3)	(-14,0)	(-13,1)	
L1D -26>	(12,1)	(-23,2)	(27,0)	(-22,0)	(25,0)	(41,0)	(34,2)	(2,0)	(16,3)	(-1,0)	(67,0)	(-16,0)	(26,0)	(31,0)	(29,0)	(-6,72)	
L1D -25>	(24,46)	(1,66)	(26,17)	(2,50)	(6,24)	(-42,10)	(41,63)	(-11,49)	(-17,14)	(-1,33)	(25,104)	(-15,9)	(4,20)	(5,21)	(34,3)	(40,9)	
L1D -24>	(23,20)	(2,21)	(1,100)	(22,80)	(24,101)	(21,3)	(46,127)	(-42,12)	(4,7)	(34,1)	(3,27)	(-18,12)	(5,16)	(25,11)	(41,13)	(-1,39)	
L1D -23>	(1,8)	(21,97)	(22,0)	(23,0)	(-17,1)	(345,0)	(-42,0)	(47,8)	(2,4)	(0,1)	(4,0)	(10,1)	(19,1)	(6,34)	(-1,0)	(20,84)	
L1D -22>	(21,104)	(1,111)	(18,67)	(2,25)	(-42,35)	(20,73)	(-6,1)	(22,103)	(23,80)	(-1,106)	(25,18)	(19,80)	(5,26)	(6,92)	(16,71)	(3,55)	
L1D -21>	(3,0)	(20,11)	(23,107)	(-9,0)	(-14,6)	(11,21)	(-26,2)	(15,0)	(10,3)	(16,0)	(6,2)	(-10,17)	(21,0)	(18,0)	(-8,0)	(47,4)	
L1D -20>	(21,2)	(2,4)	(12,16)	(-9,60)	(11,6)	(22,110)	(19,0)	(4,0)	(37,0)	(8,1)	(15,3)	(5,0)	(23,21)	(-10,106)	(14,0)	(6,0)	
L1D -19>	(-14,20)	(-25,1)	(8,101)	(9,12)	(15,0)	(6,0)	(-8,0)	(4,0)	(27,1)	(-13,0)	(7,0)	(17,0)	(23,8)	(13,0)	(3,0)	(5,0)	
L1D -18>	(1,3)	(2,8)	(17,85)	(12,10)	(4,56)	(-8,1)	(15,14)	(-34,2)	(-42,15)	(16,8)	(11,18)	(3,46)	(7,2)	(43,8)	(14,14)	(6,25)	
L1D -17>	(1,6)	(362,1)	(-10,44)	(2,6)	(4,11)	(-6,33)	(13,94)	(5,0)	(-9,0)	(-42,1)	(6,4)	(11,2)	(15,7)	(14,68)	(3,2)	(8,8)	
L1D -16>	(1,75)	(2,8)	(15,10)	(-26,5)	(3,22)	(-9,1)	(6,21)	(5,12)	(-42,8)	(4,60)	(11,19)	(13,4)	(12,8)	(26,11)	(30,4)	(14,9)	
L1D -15>	(-17,0)	(1,0)	(6,0)	(7,1)	(21,1)	(5,0)	(14,7)	(4,0)	(13,0)	(11,0)	(24,120)	(28,0)	(10,0)	(-40,0)	(12,0)	(-9,1)	
L1D -14>	(1,116)	(24,1)	(47,104)	(21,16)	(15,12)	(4,72)	(-9,2)	(7,1)	(-6,15)	(2,1)	(3,3)	(0,96)	(23,18)	(-12,1)	(6,31)	(37,6)	
L1D -13>	(1,2)	(2,15)	(12,10)	(-1,31)	(-13,0)	(-10,14)	(-11,11)	(22,12)	(-23,3)	(21,24)	(-22,0)	(-5,7)	(3,3)	(24,115)	(-35,0)	(26,16)	
L1D -12>	(1,2)	(-10,37)	(-8,2)	(2,3)	(5,0)	(15,96)	(21,13)	(6,0)	(-14,1)	(-9,12)	(4,0)	(7,13)	(0,3)	(47,1)	(3,0)	(-42,0)	
L1D -11>	(13,18)	(46,0)	(6,0)	(10,36)	(-9,7)	(-14,13)	(4,0)	(5,0)	(-10,17)	(20,0)	(-13,14)	(3,0)	(9,72)	(-8,5)	(18,0)	(-42,0)	
L1D -10>	(13,6)	(-12,5)	(4,13)	(-10,85)	(5,43)	(12,18)	(9,1)	(-13,51)	(20,23)	(-18,2)	(0,23)	(-19,29)	(32,13)	(24,15)	(16,19)	(23,2)	
L1D -9>	(-13,7)	(26,2)	(29,1)	(0,1)	(-18,4)	(-5,7)	(-12,4)	(25,74)	(-21,2)	(15,1)	(-23,0)	(30,2)	(24,4)	(-3,0)	(10,12)	(-6,8)	
L1D -8>	(-29,1)	(1,105)	(10,31)	(12,1)	(2,2)	(3,78)	(-6,6)	(4,1)	(-25,7)	(-12,5)	(24,1)	(16,8)	(9,0)	(11,5)	(-1,3)	(0,8)	
L1D -7>	(-8,7)	(8,39)	(24,0)	(-29,1)	(1,22)	(3,0)	(-11,4)	(-33,4)	(-1,28)	(10,28)	(-92,126)	(-22,2)	(2,2)	(0,14)	(-4,2)	(-13,1)	
L1D -6>	(32,1)	(-26,2)	(24,0)	(23,2)	(20,2)	(8,45)	(40,116)	(-93,25)	(-4,65)	(21,2)	(-8,15)	(16,63)	(31,4)	(-1,0)	(10,21)	(9,1)	
L1D -5>	(32,14)	(4,7)	(1,53)	(29,6)	(-7,2)	(39,3)	(-30,38)	(26,1)	(2,1)	(-2,2)	(-8,4)	(-4,4)	(31,3)	(-6,2)	(-1,99)	(3,6)	
L1D -4>	(1,45)	(6,0)	(0,3)	(23,10)	(20,101)	(-45,3)	(-11,2)	(-3,0)	(12,25)	(-5,0)	(-12,4)	(-4,0)	(-15,0)	(8,4)	(-20,3)	(-2,0)	
L1D -3>	(0,0)	(-1,9)	(2,6)	(1,26)	(28,1)	(-90,18)	(74,0)	(-21,89)	(-45,9)	(31,2)	(-6,1)	(-7,0)	(3,0)	(-26,3)	(-46,21)	(-12,0)	
L1D -2>	(-1,4)	(-4,1)	(-14,0)	(-7,0)	(-15,0)	(13,3)	(3,19)	(-46,3)	(-5,0)	(-6,0)	(-11,0)	(-90,9)	(1,27)	(-10,102)	(-19,0)	(-3,0)	
L1D -1>	(-8,84)	(-7,13)	(37,1)	(-20,14)	(2,11)	(-40,3)	(3,3)	(24,1)	(-41,61)	(-26,1)	(1,31)	(6,17)	(-10,16)	(-21,4)	(4,4)	(16,1)	
L1D 0>	(1,0)	(15,0)	(10,0)	(-93,2)	(92,25)	(93,8)	(20,4)	(0,125)	(23,9)	(-1,0)	(9,1)	(8,3)	(12,4)	(33,0)	(6,2)	(4,0)	
L1D 1>	(1,72)	(-8,2)	(3,3)	(12,1)	(-1,2)	(41,9)	(-7,5)	(-3,1)	(2,9)	(-79,9)	(33,10)	(4,5)	(46,1)	(-93,3)	(5,1)	(-2,1)	
L1D 2>	(-3,32)	(-12,16)	(-13,5)	(-6,123)	(-10,119)	(-79,1)	(-5,5)	(2,81)	(4,2)	(-1,13)	(-8,5)	(1,30)	(9,6)	(-69,63)	(-14,14)	(3,26)	
L1D 3>	(-1,116)	(0,5)	(12,1)	(38,1)	(75,1)	(-10,1)	(9,1)	(-69,1)	(1,21)	(2,6)	(-93,10)	(30,2)	(-48,2)	(-4,13)	(-9,2)	(4,1)	
L1D 4>	(11,26)	(34,2)	(-28,115)	(-10,13)	(-49,2)	(0,1)	(4,2)	(-5,17)	(8,24)	(-6,3)	(-27,0)	(-35,1)	(10,0)	(26,2)	(1,50)	(13,0)	
L1D 5>	(2,9)	(-1,11)	(67,2)	(21,5)	(3,10)	(22,111)	(-14,1)	(64,2)	(4,0)	(-9,0)	(34,8)	(-35,108)	(1,10)	(26,51)	(-49,3)	(27,35)	
L1D 6>	(34,0)	(10,0)	(-5,0)	(14,3)	(-7,64)	(8,0)	(-6,9)	(17,15)	(9,0)	(15,2)	(21,1)	(-13,0)	(-14,9)	(2,0)	(1,0)	(-12,1)	
L1D 7>	(64,0)	(25,0)	(-2,0)	(-37,71)	(-5,0)	(1,3)	(-7,0)	(17,1)	(-42,0)	(11,0)	(-17,2)	(-3,0)	(-4,0)	(41,0)	(8,0)	(9,0)	
L1D 8>	(-9,9)	(-21,4)	(-27,1)	(-13,1)	(-6,24)	(-3,34)	(3,18)	(9,15)	(2,22)	(-14,91)	(-8,64)	(1,9)	(-19,5)	(-5,97)	(-20,5)	(8,118)	
L1D 9>	(-8,5)	(-1,7)	(-18,0)	(-34,2)	(-3,0)	(-6,0)	(-9,6)	(2,1)	(-22,3)	(-42,0)	(1,29)	(-23,66)	(-17,3)	(8,1)	(-20,71)	(-4,0)	
L1D 10>	(21,0)	(-8,16)	(-47,2)	(1,5)	(-7,11)	(20,2)	(-2,0)	(-6,90)	(10,1)	(-42,0)	(6,1)	(-4,0)	(24,0)	(-20,0)	(-10,119)	(32,0)	
L1D 11>	(1,88)	(5,2)	(-1,16)	(-48,0)	(-4,0)	(-42,0)	(11,4)	(-9,0)	(-2,0)	(-3,0)	(-23,1)	(-6,0)	(37,2)	(-13,39)	(35,3)	(-10,1)	
L1D 12>	(9,2)	(8,1)	(13,2)	(35,1)	(-21,10)	(3,17)	(23,5)	(-23,0)	(-4,0)	(-10,0)	(1,4)	(-9,0)	(-5,0)	(-12,57)	(-8,10)	(17,105)	
L1D 13>	(-13,0)	(-49,1)	(-1,0)	(-9,0)	(-2,0)	(-26,2)	(-6,0)	(-4,0)	(4,123)	(-3,0)	(-14,12)	(1,4)	(-25,3)	(-20,5)	(5,0)	(-48,3)	
L1D 14>	(-8,2)	(-13,1)	(-1,2)	(-12,2)	(-21,100)	(-10,87)	(2,15)	(-7,3)	(-4,1)	(-11,1)	(-2,5)	(41,0)	(-5,1)	(-6,2)	(8,0)	(-42,2)	
L1D 15>	(-21,0)	(-13,2)	(-9,1)	(-5,0)	(-1,69)	(-11,12)	(-4,0)	(-10,0)	(-68,7)	(-2,0)	(-15,10)	(-42,0)	(-6,0)	(-12,0)	(-3,0)	(1,1)	
L1D 16>	(-20,6)	(-14,56)	(-15,0)	(-69,0)	(3,0)	(41,0)	(-4,9)	(-9,33)	(-8,73)	(-13,19)	(-3,0)	(15,0)	(6,1)	(-12,0)	(16,33)	(-10,34)	
L1D 17>	(-24,2)	(-1,2)	(22,0)	(-40,4)	(-3,16)	(-9,105)	(-27,1)	(41,0)	(-4,0)	(-13,0)	(-42,0)	(-14,9)	(-2,0)	(-60,0)	(-6,0)	(-23,17)	
L1D 18>	(-17,47)	(-1,28)	(-16,53)	(-5,63)	(-2,11)	(-14,35)	(25,7)	(-4,5)	(10,24)	(-42,72)	(-13,95)	(-15,84)	(-3,88)	(-10,1)	(-60,4)	(-6,14)	
L1D 19>	(-1,90)	(-2,40)	(-18,25)	(-17,32)	(-15,91)	(13,8)	(-42,79)	(-3,14)	(24,13)	(-13,68)	(1,19)	(29,2)	(-61,4)	(41,15)	(-4,91)	(-16,19)	
L1D 20>	(3,0)	(1,0)	(-1,2)	(-35,2)	(-16,0)	(-8,112)	(-14,6)	(-2,0)	(2,23)	(-42,0)	(-5,0)	(-20,0)	(-6,0)	(-3,0)	(-21,0)	(-15,1)	
L1D 21>	(-26,0)	(-19,36)	(-1,78)	(-18,25)	(-8,5)	(-42,0)	(-21,24)	(-2,0)	(2,1)	(-7,11)	(-4,0)	(-31,13)	(-3,0)	(-9,2)	(-17,0)	(-15,0)	
L1D 22>	(-13,0)	(-20,0)	(-1,3)	(-68,1)	(-5,0)	(-42,0)	(-18,0)	(-23,0)	(-17,2)	(-2,0)	(-69,49)	(-4,0)	(-3,0)	(5,103)	(-19,12)	(-30,7)	
L1D 23>	(-81,1)	(8,5)	(-48,5)	(9,2)	(-49,3)	(-24,0)	(2,0)	(-37,2)	(-3,58)	(-80,0)	(-69,94)	(-2,2)	(-17,19)	(-23,18)	(-19,0)	(-86,4)	
L1D 24>	(-9,2)	(-1,115)	(3,0)	(-22,0)	(-29,3)	(10,1)	(-5,0)	(8,16)	(-11,1)	(-10,50)	(-19,0)	(-18,2)	(18,1)	(-3,1)	(-21,1)	(13,114)	
L1D 25>	(20,0)	(50,1)	(-14,0)	(4,1)	(75,0)	(3,0)	(-28,2)	(25,0)	(15,0)	(-21,3)	(-13,4)	(-4,0)	(-26,0)	(-2,0)	(-40,0)	(-10,103)	
L1D 26>	(-25,14)	(-49,22)	(-30,11)	(-7,2)	(39,0)	(8,1)	(-32,121)	(-41,0)	(9,4)	(-23,0)	(-3,10)	(-22,0)	(-27,0)	(-31,11)	(-21,0)	(-2,7)	
L1D 27>	(-9,1)	(-31,0)	(-5,13)	(-19,0)	(1,0)	(-42,0)	(-4,0)	(-30,3)	(12,0)	(-28,0)	(2,1)	(-23,0)	(7,86)	(-29,0)	(-41,0)	(-40,0)	
L1D 28>	(-27,13)	(1,5)	(-42,108)	(-9,102)	(-5,46)	(-40,22)	(-1,38)	(-22,8)	(2,5)	(-41,24)	(-26,25)	(-29,65)	(11,9)	(12,15)	(-31,1)	(-33,7)	
L1D 29>	(-17,0)	(-27,0)	(-10,39)	(1,1)	(-42,12)	(-35,39)	(11,1)	(-30,3)	(-6,0)	(5,8)	(-41,0)	(-25,0)	(-24,0)	(-9,105)	(-40,3)	(2,22)	
L1D 30>	(-26,0)	(24,1)	(-1,0)	(-42,0)	(-9,0)	(-39,0)	(-35,1)	(-7,1)	(0,0)	(6,0)	(-27,0)	(-15,67)	(9,0)	(-40,0)	(-31,0)	(-41,0)	
L1D 31>	(-21,0)	(-26,86)	(1,0)	(-42,0)	(10,0)	(-6,0)	(-45,0)	(-40,0)	(2,0)	(9,0)	(4,4)	(0,0)	(-32,0)	(-44,2)	(3,0)	(-7,0)	
L1D 32>	(-29,2)	(-35,32)	(24,2)	(-8,41)	(-27,66)	(-5,6)	(-31,2)	(-7,12)	(-42,7)	(-21,83)	(-33,2)	(-20,38)	(-1,3)	(3,13)	(-9,29)	(-10,31)	
L1D 33>	(-9,0)	(-28,0)	(-33,0)	(-42,0)	(2,0)	(24,95)	(-34,2)	(8,0)	(-40,0)	(-35,0)	(4,0)	(-10,0)	(37,1)	(-41,0)	(0,0)	(-39,0)	
L1D 34>	(1,33)	(-42,0)	(-35,6)	(-12,56)	(-8,9)	(-41,0)	(-21,6)	(-36,7)	(-40,0)	(-11,39)	(-9,4)	(-7,5)	(-2,97)	(-1,5)	(-13,9)	(-5,22)	
L1D 35>	(-35,1)	(-42,43)	(2,6)	(1,4)	(6,3)	(-36,15)	(-4,74)	(4,5)	(-40,6)	(5,4)	(-41,3)	(-19,4)	(13,2)	(-79,10)	(-8,59)	(-37,3)	
L1D 36>	(1,3)	(-13,87)	(-42,65)	(5,8)	(10,8)	(-38,6)	(0,6)	(16,1)	(-41,7)	(-37,30)	(-40,8)	(-15,2)	(-2,25)	(4,6)	(-8,117)	(2,6)	
L1D 37>	(-12,10)	(-42,116)	(5,8)	(1,15)	(4,101)	(3,16)	(-39,21)	(-49,1)	(-1,5)	(-40,45)	(-41,35)	(2,9)	(-11,62)	(-38,81)	(6,9)	(0,15)	
L1D 38>	(-45,3)	(-14,3)	(-39,113)	(-40,5)	(-3,4)	(30,103)	(-42,22)	(6,1)	(7,1)	(-43,3)	(-60,1)	(-55,1)	(-50,1)	(-41,6)	(3,2)	(-36,2)	
L1D 39>	(296,1)	(-38,1)	(-3,1)	(-46,1)	(-42,20)	(-6,1)	(-88,1)	(-40,64)	(-7,1)	(-20,1)	(-41,3)	(-44,4)	(-10,1)	(-14,2)	(1,71)	(-43,1)	
L1D 40>	(-45,0)	(1,99)	(-42,0)	(-1,0)	(30,0)	(-44,0)	(-49,0)	(-41,0)	(-15,0)	(-12,0)	(-58,0)	(-10,0)	(-43,0)	(-46,0)	(-19,0)	(-11,0)	
L1D 41>	(-44,0)	(30,108)	(-42,0)	(-43,0)	(-13,0)	(-7,0)	(-12,0)	(-14,0)	(-10,0)	(-3,0)	(-11,0)	(-45,0)	(-15,0)	(-46,0)	(-1,0)	(-2,0)	
L1D 42>	(-60,6)	(-9,14)	(-42,24)	(-43,96)	(-3,10)	(-41,13)	(-7,6)	(-94,9)	(-1,37)	(-2,53)	(-4,8)	(-40,22)	(-15,11)	(-6,1)	(-5,5)	(30,17)	
L1D 43>	(6,5)	(13,6)	(26,6)	(-40,38)	(-42,65)	(-44,6)	(-41,8)	(8,9)	(5,11)	(2,4)	(3,7)	(1,8)	(21,1)	(11,3)	(0,4)	(-35,3)	
L1D 44>	(-32,54)	(-45,10)	(1,4)	(-43,5)	(2,8)	(-42,98)	(-44,10)	(0,8)	(-40,26)	(-46,5)	(-4,4)	(-1,10)	(-41,9)	(-15,8)	(-29,36)	(4,29)	
L1D 45>	(-60,7)	(-63,2)	(1,6)	(-42,65)	(-40,9)	(-6,2)	(-41,5)	(-2,2)	(-4,2)	(-5,3)	(0,2)	(2,2)	(-15,54)	(-43,2)	(-46,8)	(-75,1)	
L1D 46>	(-18,9)	(-47,40)	(-10,19)	(2,2)	(-34,20)	(-42,8)	(-35,23)	(-2,0)	(-17,1)	(-1,1)	(32,0)	(-43,1)	(-45,122)	(0,0)	(-39,0)	(-41,0)	
L1D 47>	(-34,0)	(-10,4)	(-22,0)	(1,0)	(-46,112)	(-35,2)	(-4,0)	(-2,0)	(0,0)	(4,0)	(-44,0)	(-1,0)	(-126,0)	(-20,4)	(-11,5)	(-48,0)	
L1D 48>	(-60,5)	(-2,12)	(-27,73)	(-43,7)	(-46,5)	(-42,74)	(-47,5)	(-5,4)	(-45,17)	(-12,1)	(-44,12)	(-1,14)	(3,1)	(-49,77)	(8,3)	(0,2)	
L1D 49>	(-60,11)	(-11,1)	(-42,88)	(-134,3)	(-6,5)	(-1,10)	(1,3)	(-50,22)	(-43,11)	(-3,15)	(-2,17)	(7,5)	(-47,4)	(-5,5)	(-4,4)	(0,3)	
L1D 50>	(-60,0)	(100,12)	(-42,0)	(-7,0)	(-3,0)	(-51,0)	(1,0)	(6,0)	(50,122)	(-47,0)	(125,12)	(-1,0)	(-43,0)	(75,33)	(-48,0)	(-45,0)	
L1D 51>	(-60,7)	(-42,72)	(-8,6)	(-47,1)	(-48,4)	(42,12)	(-52,29)	(-45,1)	(-55,5)	(-43,4)	(40,1)	(-1,1)	(-4,2)	(-46,2)	(-12,6)	(2,1)	
L1D 52>	(-60,5)	(7,1)	(-42,86)	(-9,4)	(-43,10)	(40,2)	(-46,2)	(-1,7)	(-49,2)	(-7,1)	(-2,6)	(-53,4)	(-146,1)	(-52,3)	(-8,3)	(9,4)	
L1D 53>	(-60,10)	(-48,2)	(-42,88)	(-10,10)	(-52,4)	(-44,2)	(-51,1)	(-3,1)	(-9,1)	(-43,7)	(6,3)	(-61,1)	(7,1)	(2,4)	(-1,3)	(5,1)	
L1D 54>	(-60,13)	(-42,126)	(-11,14)	(-27,2)	(-63,4)	(2,1)	(-9,7)	(-51,2)	(-43,2)	(-8,3)	(-1,23)	(32,3)	(-52,7)	(10,2)	(-4,1)	(5,8)	
L1D 55>	(-60,4)	(-13,1)	(-42,104)	(-12,8)	(-54,11)	(-10,2)	(-43,3)	(-21,2)	(-45,2)	(-2,4)	(-107,3)	(-1,9)	(1,3)	(-58,2)	(-3,3)	(-65,5)	
L1D 56>	(2,20)	(-60,8)	(-55,2)	(-3,2)	(-42,127)	(-13,20)	(-52,12)	(1,5)	(-2,4)	(-1,33)	(-62,2)	(6,7)	(-57,3)	(-68,3)	(-29,2)	(4,2)	
L1D 57>	(-60,24)	(-42,126)	(-14,10)	(-1,16)	(-9,2)	(-56,1)	(2,1)	(-43,4)	(-20,5)	(-3,2)	(-52,17)	(-2,20)	(-58,6)	(-12,15)	(-55,6)	(-61,3)	
L1D 58>	(-60,21)	(1,3)	(-42,76)	(-15,9)	(-2,8)	(-59,12)	(-13,7)	(-152,6)	(-14,5)	(-1,14)	(-56,2)	(-31,2)	(-9,1)	(-3,7)	(-43,5)	(-41,2)	
L1D 59>	(-60,90)	(-62,10)	(-3,9)	(-42,98)	(-15,6)	(4,6)	(-16,12)	(-10,11)	(-151,3)	(-13,1)	(-75,4)	(-14,14)	(-1,28)	(-5,5)	(-63,16)	(-57,4)	
L1D 60>	(-2,0)	(-60,77)	(-42,0)	(-17,0)	(-4,0)	(0,0)	(-154,0)	(-14,0)	(-3,0)	(-65,0)	(-12,0)	(-44,0)	(-20,0)	(-59,0)	(-7,0)	(-1,0)	
L1D 61>	(-60,88)	(-42,120)	(-18,23)	(-56,14)	(-54,10)	(-1,17)	(-59,16)	(17,21)	(29,4)	(-153,1)	(15,9)	(1,39)	(25,2)	(8,11)	(-49,7)	(9,11)	
L1D 62>	(-1,17)	(-60,64)	(-5,1)	(-42,38)	(-19,12)	(-58,1)	(-41,3)	(-40,1)	(4,3)	(5,5)	(-59,10)	(-152,1)	(0,2)	(-51,0)	(-17,5)	(-55,3)	
L1D 63>	(-60,79)	(8,4)	(-20,13)	(-42,75)	(-62,5)	(4,7)	(-93,4)	(-17,1)	(-2,12)	(17,2)	(7,1)	(3,10)	(16,1)	(-52,2)	(-43,15)	(-1,5)	
L1D 64>	(296,36)	(-60,103)	(-3,10)	(-42,98)	(-21,35)	(8,2)	(-154,4)	(2,20)	(-4,6)	(-62,10)	(6,2)	(3,2)	(-1,9)	(21,2)	(1,10)	(-41,22)	
L1D 65>	(-60,19)	(-43,1)	(-6,2)	(-42,65)	(-22,8)	(8,1)	(-4,2)	(-64,87)	(-59,1)	(-154,1)	(1,2)	(-2,6)	(-1,7)	(-21,5)	(-153,1)	(-16,1)	
L1D 66>	(-60,82)	(-64,1)	(28,2)	(-65,21)	(-5,7)	(-42,120)	(-23,57)	(-35,2)	(1,3)	(-7,2)	(-62,4)	(-41,8)	(-63,9)	(-1,10)	(-39,4)	(61,7)	
L1D 67>	(-60,45)	(-75,34)	(-42,87)	(-24,12)	(-69,4)	(-6,3)	(4,1)	(-66,2)	(-40,1)	(0,1)	(-61,1)	(-4,5)	(-37,1)	(1,1)	(87,1)	(-151,1)	
L1D 68>	(-60,97)	(-42,127)	(-9,4)	(-25,28)	(-61,2)	(2,6)	(-7,10)	(-59,3)	(-24,1)	(1,6)	(-1,14)	(-150,2)	(-12,2)	(3,3)	(-2,5)	(-23,9)	
L1D 69>	(-60,47)	(-8,5)	(-42,100)	(25,2)	(1,6)	(5,2)	(-6,1)	(-26,7)	(-68,3)	(-149,1)	(-61,1)	(42,9)	(2,11)	(3,1)	(-1,5)	(-40,2)	
L1D 70>	(-60,32)	(-42,72)	(-27,1)	(-9,3)	(-71,3)	(2,1)	(-26,1)	(-30,2)	(-4,0)	(-40,2)	(-25,0)	(-16,0)	(-3,0)	(-152,1)	(-1,4)	(24,3)	
L1D 71>	(-10,13)	(-69,3)	(-60,61)	(-42,125)	(2,2)	(-70,2)	(23,5)	(-1,4)	(-28,3)	(-72,4)	(-61,2)	(-2,4)	(42,1)	(5,2)	(-56,1)	(6,1)	
L1D 72>	(-60,80)	(-39,33)	(-73,8)	(-11,7)	(-1,6)	(6,6)	(-42,19)	(22,3)	(1,6)	(57,3)	(2,2)	(-71,3)	(-75,1)	(-18,3)	(-70,3)	(61,3)	
L1D 73>	(-60,72)	(-12,12)	(-40,24)	(40,2)	(2,9)	(-42,69)	(-1,7)	(1,23)	(21,2)	(-74,56)	(-77,2)	(-93,2)	(-7,2)	(-2,3)	(-11,4)	(55,3)	
L1D 74>	(-60,57)	(-42,9)	(-13,9)	(5,2)	(288,2)	(1,18)	(44,5)	(11,3)	(-75,32)	(-71,3)	(0,2)	(-55,14)	(2,6)	(-10,2)	(-61,3)	(-1,9)	
L1D 75>	(50,106)	(100,1)	(-60,13)	(1,3)	(25,9)	(-42,5)	(-76,7)	(-70,14)	(75,1)	(-30,1)	(2,3)	(-1,7)	(40,4)	(43,6)	(-41,5)	(-25,1)	
L1D 76>	(-60,38)	(-15,12)	(1,13)	(40,20)	(-42,7)	(2,7)	(-77,11)	(-35,1)	(-117,1)	(-75,4)	(-1,4)	(-59,1)	(-2,4)	(41,5)	(6,6)	(9,1)	
L1D 77>	(45,2)	(1,10)	(-60,20)	(-16,5)	(-42,14)	(0,6)	(-93,2)	(44,4)	(42,6)	(-78,17)	(-62,1)	(-1,2)	(-5,5)	(-2,1)	(2,7)	(68,2)	
L1D 78>	(-60,14)	(-77,10)	(1,6)	(-70,3)	(-17,4)	(42,7)	(-42,36)	(-74,1)	(-79,12)	(5,3)	(2,4)	(3,4)	(-3,4)	(69,3)	(-5,2)	(-106,1)	
L1D 79>	(-60,19)	(-18,6)	(-2,6)	(-80,11)	(-40,2)	(42,12)	(-42,13)	(3,10)	(39,4)	(1,3)	(-15,7)	(15,3)	(46,11)	(2,2)	(-107,3)	(38,11)	
L1D 80>	(-19,6)	(-59,1)	(-78,2)	(2,6)	(-152,1)	(-60,11)	(-1,14)	(-81,12)	(73,1)	(-42,7)	(37,1)	(14,3)	(-14,7)	(-4,5)	(3,5)	(40,4)	
L1D 81>	(-60,26)	(-80,12)	(1,8)	(3,4)	(-20,6)	(73,3)	(-42,21)	(-82,33)	(-76,2)	(-4,1)	(-5,3)	(41,3)	(9,1)	(45,2)	(2,3)	(43,3)	
L1D 82>	(-83,39)	(-60,9)	(1,6)	(39,4)	(-42,17)	(0,6)	(-1,6)	(-80,1)	(43,8)	(-12,9)	(-76,3)	(-81,4)	(41,3)	(38,4)	(-77,27)	(-59,3)	
L1D 83>	(-60,6)	(11,9)	(1,7)	(41,9)	(-22,12)	(2,1)	(0,3)	(-42,20)	(42,4)	(-2,4)	(-84,12)	(40,9)	(-36,1)	(-3,10)	(69,1)	(-11,3)	
L1D 84>	(-23,3)	(-60,3)	(0,9)	(-42,113)	(-1,6)	(-43,21)	(-10,2)	(1,2)	(10,6)	(41,2)	(-38,3)	(-5,3)	(60,1)	(-83,1)	(33,17)	(-59,1)	
L1D 85>	(-60,7)	(7,3)	(49,3)	(-42,25)	(-8,2)	(5,5)	(1,3)	(-43,12)	(-39,2)	(42,4)	(3,2)	(-3,5)	(0,1)	(9,4)	(-9,1)	(2,3)	
L1D 86>	(-60,11)	(1,21)	(6,1)	(-4,1)	(-1,8)	(17,1)	(-24,1)	(-42,8)	(2,3)	(43,4)	(48,1)	(4,1)	(-23,1)	(-25,1)	(42,1)	(5,1)	
L1D 87>	(1,11)	(-60,27)	(-42,22)	(-1,2)	(4,2)	(-26,3)	(59,2)	(-88,1)	(2,4)	(29,3)	(-3,2)	(62,1)	(12,2)	(-38,2)	(3,4)	(5,3)	
L1D 88>	(2,87)	(41,4)	(45,3)	(59,4)	(1,6)	(-43,4)	(-60,1)	(42,15)	(-42,19)	(-89,5)	(62,2)	(28,1)	(37,1)	(-1,5)	(-8,1)	(40,2)	
L1D 89>	(-60,8)	(4,3)	(1,10)	(44,8)	(41,8)	(-90,9)	(-42,23)	(-5,10)	(2,4)	(43,4)	(0,1)	(28,2)	(-4,8)	(-13,2)	(-2,4)	(-38,3)	
L1D 90>	(-21,0)	(-2,0)	(43,0)	(54,0)	(-43,0)	(-91,0)	(63,0)	(38,0)	(-42,0)	(12,0)	(39,0)	(41,0)	(3,5)	(-90,106)	(-60,0)	(-12,0)	
L1D 91>	(59,11)	(-92,32)	(1,5)	(41,9)	(-40,18)	(-23,3)	(-2,1)	(40,5)	(42,6)	(-42,44)	(-51,1)	(-17,1)	(-4,4)	(-1,6)	(-91,1)	(38,3)	
L1D 92>	(-44,0)	(1,50)	(4,0)	(-92,98)	(-40,0)	(31,0)	(59,0)	(38,0)	(-93,0)	(2,0)	(-2,19)	(-41,0)	(57,0)	(0,0)	(41,0)	(-42,0)	
L1D 93>	(-93,98)	(-22,0)	(6,51)	(-3,3)	(-1,0)	(0,4)	(-94,0)	(58,0)	(59,0)	(61,0)	(-42,0)	(60,0)	(4,0)	(-39,0)	(42,0)	(-2,0)	
L1D 94>	(3,1)	(-23,2)	(-2,8)	(58,1)	(-19,1)	(-42,87)	(-1,2)	(-4,8)	(-93,22)	(-21,1)	(-43,4)	(-63,2)	(-55,6)	(-61,3)	(-10,1)	(-44,1)	
L1D 95>	(1,41)	(-96,5)	(41,1)	(48,1)	(3,2)	(-5,3)	(50,1)	(43,1)	(4,1)	(-136,8)	(2,8)	(49,1)	(-97,1)	(5,1)	(-1,1)	(-4,1)	
L1D 96>	(41,3)	(-96,5)	(-6,1)	(42,4)	(1,1)	(6,1)	(-97,3)	(-35,6)	(2,2)	(43,1)	(-5,3)	(-12,1)	(3,1)	(-4,1)	(-2,1)	(45,1)	
L1D 97>	(-96,5)	(43,1)	(-5,3)	(-1,1)	(49,1)	(42,4)	(46,2)	(3,2)	(-21,1)	(44,3)	(41,1)	(-3,1)	(-98,1)	(7,1)	(1,0)	(1,0)	
L1D 98>	(32,74)	(43,3)	(42,4)	(4,1)	(1,1)	(-40,0)	(10,16)	(9,0)	(-97,12)	(-6,1)	(-55,13)	(36,0)	(27,0)	(-99,3)	(41,1)	(-16,0)	
L1D 99>	(41,2)	(-98,2)	(-97,3)	(-1,1)	(-10,1)	(-2,1)	(33,1)	(42,13)	(3,2)	(2,2)	(47,1)	(-7,13)	(-6,74)	(46,4)	(-12,1)	(29,2)	
L1D 100>	(41,5)	(42,24)	(50,4)	(125,2)	(37,3)	(-65,3)	(25,50)	(39,3)	(-1,1)	(-8,4)	(75,6)	(26,1)	(45,1)	(-5,1)	(36,3)	(-6,1)	
L1D 101>	(41,3)	(36,1)	(44,18)	(-1,3)	(-100,2)	(-20,8)	(-102,7)	(21,1)	(-14,1)	(42,2)	(40,1)	(3,1)	(0,2)	(37,2)	(38,1)	(-5,1)	
L1D 102>	(39,5)	(-1,3)	(43,11)	(28,1)	(-15,1)	(25,1)	(41,7)	(-103,28)	(-4,1)	(1,4)	(-108,2)	(38,3)	(35,5)	(37,4)	(-10,20)	(-2,2)	
L1D 103>	(24,1)	(41,10)	(39,4)	(40,12)	(-1,2)	(1,2)	(43,3)	(-40,17)	(-104,14)	(42,7)	(-3,3)	(30,1)	(27,3)	(21,1)	(-5,2)	(25,1)	
L1D 104>	(41,14)	(-3,6)	(38,5)	(35,1)	(40,15)	(-105,2)	(-5,2)	(37,4)	(33,1)	(-2,8)	(-1,6)	(20,1)	(36,6)	(28,3)	(32,6)	(10,3)	
L1D 105>	(32,33)	(2,2)	(-104,1)	(10,13)	(1,0)	(1,0)	(1,0)	(1,0)	(1,0)	(1,0)	(1,0)	(1,0)	(1,0)	(1,0)	(1,0)	(1,0)	
L1D 106>	(-105,91)	(32,13)	(-8,1)	(1,0)	(1,0)	(1,0)	(1,0)	(1,0)	(1,0)	(1,0)	(1,0)	(1,0)	(1,0)	(1,0)	(1,0)	(1,0)	
L1D 107>	(-106,93)	(-105,1)	(1,0)	(1,0)	(1,0)	(1,0)	(1,0)	(1,0)	(1,0)	(1,0)	(1,0)	(1,0)	(1,0)	(1,0)	(1,0)	(1,0)	
L1D 108>	(-10,1)	(-84,1)	(1,0)	(1,0)	(1,0)	(1,0)	(1,0)	(1,0)	(1,0)	(1,0)	(1,0)	(1,0)	(1,0)	(1,0)	(1,0)	(1,0)	
L1D 109>	(1,2)	(-42,5)	(-107,1)	(0,56)	(1,0)	(1,0)	(1,0)	(1,0)	(1,0)	(1,0)	(1,0)	(1,0)	(1,0)	(1,0)	(1,0)	(1,0)	
L1D 110>	(-43,1)	(1,0)	(1,0)	(1,0)	(1,0)	(1,0)	(1,0)	(1,0)	(1,0)	(1,0)	(1,0)	(1,0)	(1,0)	(1,0)	(1,0)	(1,0)	
L1D 111>	(1,1)	(0,94)	(3,2)	(-42,95)	(6,19)	(5,14)	(1,0)	(1,0)	(1,0)	(1,0)	(1,0)	(1,0)	(1,0)	(1,0)	(1,0)	(1,0)	
L1D 112>	(-1,2)	(1,3)	(-108,1)	(1,0)	(1,0)	(1,0)	(1,0)	(1,0)	(1,0)	(1,0)	(1,0)	(1,0)	(1,0)	(1,0)	(1,0)	(1,0)	
L1D 113>	(-42,6)	(4,16)	(3,1)	(5,3)	(9,2)	(1,0)	(1,0)	(1,0)	(1,0)	(1,0)	(1,0)	(1,0)	(1,0)	(1,0)	(1,0)	(1,0)	
L1D 114>	(-42,31)	(-115,10)	(2,6)	(1,4)	(-1,2)	(7,3)	(0,1)	(5,2)	(4,2)	(3,2)	(6,1)	(1,0)	(1,0)	(1,0)	(1,0)	(1,0)	
L1D 115>	(1,2)	(-42,21)	(-116,36)	(-118,12)	(2,1)	(3,4)	(5,1)	(0,3)	(-2,1)	(6,1)	(1,0)	(1,0)	(1,0)	(1,0)	(1,0)	(1,0)	
L1D 116>	(-42,32)	(0,4)	(-117,64)	(-2,3)	(18,1)	(4,1)	(11,3)	(-43,1)	(2,4)	(1,17)	(-44,2)	(29,13)	(-41,2)	(-1,1)	(6,1)	(5,2)	
L1D 117>	(8,1)	(4,2)	(-42,40)	(-82,12)	(-3,1)	(1,9)	(-78,1)	(-118,105)	(0,24)	(-2,3)	(9,2)	(2,5)	(6,7)	(10,2)	(5,2)	(17,2)	
L1D 118>	(-1,26)	(-42,53)	(2,3)	(1,4)	(38,4)	(-38,1)	(-138,2)	(-114,2)	(3,2)	(-106,1)	(-2,11)	(-119,35)	(-60,1)	(16,3)	(-45,15)	(-3,5)	
L1D 119>	(-42,31)	(1,10)	(6,4)	(4,2)	(15,1)	(-1,3)	(2,2)	(-35,17)	(3,7)	(10,2)	(-41,2)	(-120,8)	(-136,4)	(5,5)	(8,2)	(-45,1)	
L1D 120>	(-42,34)	(5,13)	(1,9)	(-20,1)	(-138,2)	(-7,1)	(-4,1)	(12,2)	(14,2)	(4,5)	(9,1)	(-121,14)	(-44,3)	(0,4)	(-45,1)	(-3,3)	
L1D 121>	(-41,1)	(4,6)	(-42,33)	(10,4)	(-138,2)	(-3,5)	(-122,26)	(2,7)	(5,1)	(3,4)	(15,7)	(-45,1)	(-37,1)	(-1,14)	(-2,6)	(-44,1)	
L1D 122>	(20,1)	(-107,47)	(-42,26)	(-46,2)	(-123,22)	(1,12)	(12,1)	(3,3)	(2,9)	(11,5)	(-2,5)	(-1,3)	(-106,1)	(4,30)	(10,11)	(-138,3)	
L1D 123>	(32,123)	(-135,1)	(-25,2)	(-124,5)	(-42,5)	(-40,1)	(1,1)	(-41,1)	(3,1)	(-60,3)	(5,1)	(2,1)	(-138,1)	(9,1)	(-44,0)	(-47,0)	
L1D 124>	(-42,40)	(1,9)	(-32,66)	(-1,7)	(-125,38)	(-2,5)	(-9,3)	(-60,12)	(-3,4)	(-138,1)	(8,9)	(-34,1)	(10,4)	(2,6)	(-5,5)	(-10,2)	
L1D 125>	(-126,48)	(-1,7)	(1,6)	(-42,80)	(-8,2)	(-135,12)	(-138,11)	(-60,9)	(50,84)	(4,5)	(21,1)	(-46,2)	(-7,8)	(2,8)	(0,46)	(-2,1)	
L1D 126>	(-42,23)	(1,113)	(-138,7)	(-60,10)	(-107,13)	(-41,1)	(-127,3)	(20,5)	(-3,2)	(-49,1)	(7,11)	(-137,2)	(2,3)	(-57,1)	(6,5)	(-40,1)	
L1D 127>	(1,14)	(-6,2)	(-42,14)	(-60,10)	(-41,3)	(-138,31)	(2,3)	(19,3)	(5,4)	(7,4)	(6,4)	(-49,4)	(-48,5)	(-128,2)	(10,2)	(-137,2)	
L1D 128>	(2,17)	(-42,24)	(-138,9)	(-107,32)	(1,9)	(5,8)	(-60,4)	(-41,2)	(-181,2)	(-129,3)	(8,2)	(18,2)	(4,5)	(6,6)	(10,4)	(-48,3)	
L1D 129>	(-60,20)	(-42,13)	(-1,4)	(-7,1)	(-138,33)	(2,9)	(4,6)	(1,10)	(5,5)	(7,4)	(-57,1)	(10,2)	(-45,3)	(-11,2)	(-2,4)	(-4,1)	
L1D 130>	(-1,4)	(-60,8)	(-42,68)	(-2,6)	(-131,10)	(3,9)	(0,6)	(-138,27)	(32,124)	(2,7)	(4,8)	(6,9)	(-43,11)	(-44,1)	(-7,3)	(-5,6)	
L1D 131>	(-60,12)	(-132,30)	(-4,6)	(-42,23)	(-1,25)	(-10,5)	(1,10)	(4,1)	(2,5)	(-138,25)	(6,1)	(-5,1)	(-8,1)	(-45,1)	(-13,1)	(-2,8)	
L1D 132>	(-137,1)	(-4,4)	(-42,28)	(-11,4)	(-1,10)	(-133,37)	(-43,3)	(-3,14)	(-60,16)	(-138,26)	(-10,2)	(-62,3)	(0,4)	(-7,3)	(-2,7)	(1,9)	
L1D 133>	(-42,100)	(-1,21)	(-60,24)	(-137,5)	(-134,67)	(0,14)	(-138,36)	(-2,7)	(-43,5)	(-11,4)	(-13,5)	(-10,7)	(-4,11)	(-7,6)	(-82,16)	(-8,1)	
L1D 134>	(-115,13)	(6,1)	(-42,70)	(-60,5)	(-58,3)	(-2,17)	(-138,52)	(-9,2)	(-135,5)	(2,2)	(10,2)	(-14,8)	(-1,14)	(-15,7)	(-13,4)	(-3,12)	
L1D 135>	(-60,9)	(-42,17)	(-138,28)	(-136,16)	(3,2)	(-139,4)	(-11,1)	(-40,2)	(-1,2)	(-2,5)	(-8,2)	(-137,11)	(-134,7)	(4,9)	(-135,5)	(19,4)	
[...]
L1D 455>	(1,0)	(1,0)	(1,0)	(1,0)	(1,0)	(1,0)	(1,0)	(1,0)	(1,0)	(1,0)	(1,0)	(1,0)	(1,0)	(1,0)	(1,0)	(1,0)	
L1D 456>	(1,0)	(1,0)	(1,0)	(1,0)	(1,0)	(1,0)	(1,0)	(1,0)	(1,0)	(1,0)	(1,0)	(1,0)	(1,0)	(1,0)	(1,0)	(1,0)	
L1D 457>	(1,0)	(1,0)	(1,0)	(1,0)	(1,0)	(1,0)	(1,0)	(1,0)	(1,0)	(1,0)	(1,0)	(1,0)	(1,0)	(1,0)	(1,0)	(1,0)	
L1D 458>	(1,0)	(1,0)	(1,0)	(1,0)	(1,0)	(1,0)	(1,0)	(1,0)	(1,0)	(1,0)	(1,0)	(1,0)	(1,0)	(1,0)	(1,0)	(1,0)	
L1D 459>	(1,0)	(1,0)	(1,0)	(1,0)	(1,0)	(1,0)	(1,0)	(1,0)	(1,0)	(1,0)	(1,0)	(1,0)	(1,0)	(1,0)	(1,0)	(1,0)	
L1D 460>	(1,0)	(1,0)	(1,0)	(1,0)	(1,0)	(1,0)	(1,0)	(1,0)	(1,0)	(1,0)	(1,0)	(1,0)	(1,0)	(1,0)	(1,0)	(1,0)	
L1D 461>	(1,0)	(1,0)	(1,0)	(1,0)	(1,0)	(1,0)	(1,0)	(1,0)	(1,0)	(1,0)	(1,0)	(1,0)	(1,0)	(1,0)	(1,0)	(1,0)	
L1D 462>	(1,0)	(1,0)	(1,0)	(1,0)	(1,0)	(1,0)	(1,0)	(1,0)	(1,0)	(1,0)	(1,0)	(1,0)	(1,0)	(1,0)	(1,0)	(1,0)	
L1D 463>	(1,0)	(1,0)	(1,0)	(1,0)	(1,0)	(1,0)	(1,0)	(1,0)	(1,0)	(1,0)	(1,0)	(1,0)	(1,0)	(1,0)	(1,0)	(1,0)	
L1D 464>	(1,0)	(1,0)	(1,0)	(1,0)	(1,0)	(1,0)	(1,0)	(1,0)	(1,0)	(1,0)	(1,0)	(1,0)	(1,0)	(1,0)	(1,0)	(1,0)	
L1D 465>	(1,0)	(1,0)	(1,0)	(1,0)	(1,0)	(1,0)	(1,0)	(1,0)	(1,0)	(1,0)	(1,0)	(1,0)	(1,0)	(1,0)	(1,0)	(1,0)	
L1D 466>	(1,0)	(1,0)	(1,0)	(1,0)	(1,0)	(1,0)	(1,0)	(1,0)	(1,0)	(1,0)	(1,0)	(1,0)	(1,0)	(1,0)	(1,0)	(1,0)	
L1D 467>	(1,0)	(1,0)	(1,0)	(1,0)	(1,0)	(1,0)	(1,0)	(1,0)	(1,0)	(1,0)	(1,0)	(1,0)	(1,0)	(1,0)	(1,0)	(1,0)	
L1D 468>	(1,0)	(1,0)	(1,0)	(1,0)	(1,0)	(1,0)	(1,0)	(1,0)	(1,0)	(1,0)	(1,0)	(1,0)	(1,0)	(1,0)	(1,0)	(1,0)	
L1D 469>	(1,0)	(1,0)	(1,0)	(1,0)	(1,0)	(1,0)	(1,0)	(1,0)	(1,0)	(1,0)	(1,0)	(1,0)	(1,0)	(1,0)	(1,0)	(1,0)	
L1D 470>	(1,0)	(1,0)	(1,0)	(1,0)	(1,0)	(1,0)	(1,0)	(1,0)	(1,0)	(1,0)	(1,0)	(1,0)	(1,0)	(1,0)	(1,0)	(1,0)	
L1D 471>	(1,0)	(1,0)	(1,0)	(1,0)	(1,0)	(1,0)	(1,0)	(1,0)	(1,0)	(1,0)	(1,0)	(1,0)	(1,0)	(1,0)	(1,0)	(1,0)	
L1D 472>	(1,0)	(1,0)	(1,0)	(1,0)	(1,0)	(1,0)	(1,0)	(1,0)	(1,0)	(1,0)	(1,0)	(1,0)	(1,0)	(1,0)	(1,0)	(1,0)	
L1D 473>	(1,0)	(1,0)	(1,0)	(1,0)	(1,0)	(1,0)	(1,0)	(1,0)	(1,0)	(1,0)	(1,0)	(1,0)	(1,0)	(1,0)	(1,0)	(1,0)	
L1D 474>	(1,0)	(1,0)	(1,0)	(1,0)	(1,0)	(1,0)	(1,0)	(1,0)	(1,0)	(1,0)	(1,0)	(1,0)	(1,0)	(1,0)	(1,0)	(1,0)	
L1D 475>	(1,0)	(1,0)	(1,0)	(1,0)	(1,0)	(1,0)	(1,0)	(1,0)	(1,0)	(1,0)	(1,0)	(1,0)	(1,0)	(1,0)	(1,0)	(1,0)	
L1D 476>	(1,0)	(1,0)	(1,0)	(1,0)	(1,0)	(1,0)	(1,0)	(1,0)	(1,0)	(1,0)	(1,0)	(1,0)	(1,0)	(1,0)	(1,0)	(1,0)	
L1D 477>	(1,0)	(1,0)	(1,0)	(1,0)	(1,0)	(1,0)	(1,0)	(1,0)	(1,0)	(1,0)	(1,0)	(1,0)	(1,0)	(1,0)	(1,0)	(1,0)	
L1D 478>	(1,0)	(1,0)	(1,0)	(1,0)	(1,0)	(1,0)	(1,0)	(1,0)	(1,0)	(1,0)	(1,0)	(1,0)	(1,0)	(1,0)	(1,0)	(1,0)	
L1D 479>	(1,0)	(1,0)	(1,0)	(1,0)	(1,0)	(1,0)	(1,0)	(1,0)	(1,0)	(1,0)	(1,0)	(1,0)	(1,0)	(1,0)	(1,0)	(1,0)	
L1D 480>	(1,0)	(1,0)	(1,0)	(1,0)	(1,0)	(1,0)	(1,0)	(1,0)	(1,0)	(1,0)	(1,0)	(1,0)	(1,0)	(1,0)	(1,0)	(1,0)	
L1D 481>	(1,0)	(1,0)	(1,0)	(1,0)	(1,0)	(1,0)	(1,0)	(1,0)	(1,0)	(1,0)	(1,0)	(1,0)	(1,0)	(1,0)	(1,0)	(1,0)	
L1D 482>	(1,0)	(1,0)	(1,0)	(1,0)	(1,0)	(1,0)	(1,0)	(1,0)	(1,0)	(1,0)	(1,0)	(1,0)	(1,0)	(1,0)	(1,0)	(1,0)	
L1D 483>	(1,0)	(1,0)	(1,0)	(1,0)	(1,0)	(1,0)	(1,0)	(1,0)	(1,0)	(1,0)	(1,0)	(1,0)	(1,0)	(1,0)	(1,0)	(1,0)	
L1D 484>	(1,0)	(1,0)	(1,0)	(1,0)	(1,0)	(1,0)	(1,0)	(1,0)	(1,0)	(1,0)	(1,0)	(1,0)	(1,0)	(1,0)	(1,0)	(1,0)	
L1D 485>	(1,0)	(1,0)	(1,0)	(1,0)	(1,0)	(1,0)	(1,0)	(1,0)	(1,0)	(1,0)	(1,0)	(1,0)	(1,0)	(1,0)	(1,0)	(1,0)	
L1D 486>	(1,0)	(1,0)	(1,0)	(1,0)	(1,0)	(1,0)	(1,0)	(1,0)	(1,0)	(1,0)	(1,0)	(1,0)	(1,0)	(1,0)	(1,0)	(1,0)	
L1D 487>	(1,0)	(1,0)	(1,0)	(1,0)	(1,0)	(1,0)	(1,0)	(1,0)	(1,0)	(1,0)	(1,0)	(1,0)	(1,0)	(1,0)	(1,0)	(1,0)	
L1D 488>	(1,0)	(1,0)	(1,0)	(1,0)	(1,0)	(1,0)	(1,0)	(1,0)	(1,0)	(1,0)	(1,0)	(1,0)	(1,0)	(1,0)	(1,0)	(1,0)	
L1D 489>	(1,0)	(1,0)	(1,0)	(1,0)	(1,0)	(1,0)	(1,0)	(1,0)	(1,0)	(1,0)	(1,0)	(1,0)	(1,0)	(1,0)	(1,0)	(1,0)	
L1D 490>	(1,0)	(1,0)	(1,0)	(1,0)	(1,0)	(1,0)	(1,0)	(1,0)	(1,0)	(1,0)	(1,0)	(1,0)	(1,0)	(1,0)	(1,0)	(1,0)	
L1D 491>	(1,0)	(1,0)	(1,0)	(1,0)	(1,0)	(1,0)	(1,0)	(1,0)	(1,0)	(1,0)	(1,0)	(1,0)	(1,0)	(1,0)	(1,0)	(1,0)	
L1D 492>	(1,0)	(1,0)	(1,0)	(1,0)	(1,0)	(1,0)	(1,0)	(1,0)	(1,0)	(1,0)	(1,0)	(1,0)	(1,0)	(1,0)	(1,0)	(1,0)	
L1D 493>	(1,0)	(1,0)	(1,0)	(1,0)	(1,0)	(1,0)	(1,0)	(1,0)	(1,0)	(1,0)	(1,0)	(1,0)	(1,0)	(1,0)	(1,0)	(1,0)	
L1D 494>	(1,0)	(1,0)	(1,0)	(1,0)	(1,0)	(1,0)	(1,0)	(1,0)	(1,0)	(1,0)	(1,0)	(1,0)	(1,0)	(1,0)	(1,0)	(1,0)	
L1D 495>	(1,0)	(1,0)	(1,0)	(1,0)	(1,0)	(1,0)	(1,0)	(1,0)	(1,0)	(1,0)	(1,0)	(1,0)	(1,0)	(1,0)	(1,0)	(1,0)	
L1D 496>	(1,0)	(1,0)	(1,0)	(1,0)	(1,0)	(1,0)	(1,0)	(1,0)	(1,0)	(1,0)	(1,0)	(1,0)	(1,0)	(1,0)	(1,0)	(1,0)	
L1D 497>	(1,0)	(1,0)	(1,0)	(1,0)	(1,0)	(1,0)	(1,0)	(1,0)	(1,0)	(1,0)	(1,0)	(1,0)	(1,0)	(1,0)	(1,0)	(1,0)	
L1D 498>	(1,0)	(1,0)	(1,0)	(1,0)	(1,0)	(1,0)	(1,0)	(1,0)	(1,0)	(1,0)	(1,0)	(1,0)	(1,0)	(1,0)	(1,0)	(1,0)	
L1D 499>	(1,0)	(1,0)	(1,0)	(1,0)	(1,0)	(1,0)	(1,0)	(1,0)	(1,0)	(1,0)	(1,0)	(1,0)	(1,0)	(1,0)	(1,0)	(1,0)	
L1D 500>	(1,0)	(1,0)	(1,0)	(1,0)	(1,0)	(1,0)	(1,0)	(1,0)	(1,0)	(1,0)	(1,0)	(1,0)	(1,0)	(1,0)	(1,0)	(1,0)	
L1D 501>	(1,0)	(1,0)	(1,0)	(1,0)	(1,0)	(1,0)	(1,0)	(1,0)	(1,0)	(1,0)	(1,0)	(1,0)	(1,0)	(1,0)	(1,0)	(1,0)	
L1D 502>	(1,0)	(1,0)	(1,0)	(1,0)	(1,0)	(1,0)	(1,0)	(1,0)	(1,0)	(1,0)	(1,0)	(1,0)	(1,0)	(1,0)	(1,0)	(1,0)	
L1D 503>	(1,0)	(1,0)	(1,0)	(1,0)	(1,0)	(1,0)	(1,0)	(1,0)	(1,0)	(1,0)	(1,0)	(1,0)	(1,0)	(1,0)	(1,0)	(1,0)	
L1D 504>	(1,0)	(1,0)	(1,0)	(1,0)	(1,0)	(1,0)	(1,0)	(1,0)	(1,0)	(1,0)	(1,0)	(1,0)	(1,0)	(1,0)	(1,0)	(1,0)	
L1D 505>	(1,0)	(1,0)	(1,0)	(1,0)	(1,0)	(1,0)	(1,0)	(1,0)	(1,0)	(1,0)	(1,0)	(1,0)	(1,0)	(1,0)	(1,0)	(1,0)	
L1D 506>	(1,0)	(1,0)	(1,0)	(1,0)	(1,0)	(1,0)	(1,0)	(1,0)	(1,0)	(1,0)	(1,0)	(1,0)	(1,0)	(1,0)	(1,0)	(1,0)	
L1D 507>	(1,0)	(1,0)	(1,0)	(1,0)	(1,0)	(1,0)	(1,0)	(1,0)	(1,0)	(1,0)	(1,0)	(1,0)	(1,0)	(1,0)	(1,0)	(1,0)	
L1D 508>	(1,0)	(1,0)	(1,0)	(1,0)	(1,0)	(1,0)	(1,0)	(1,0)	(1,0)	(1,0)	(1,0)	(1,0)	(1,0)	(1,0)	(1,0)	(1,0)	
L1D 509>	(1,0)	(1,0)	(1,0)	(1,0)	(1,0)	(1,0)	(1,0)	(1,0)	(1,0)	(1,0)	(1,0)	(1,0)	(1,0)	(1,0)	(1,0)	(1,0)	
L1D 510>	(1,0)	(1,0)	(1,0)	(1,0)	(1,0)	(1,0)	(1,0)	(1,0)	(1,0)	(1,0)	(1,0)	(1,0)	(1,0)	(1,0)	(1,0)	(1,0)	
L1D 511>	(1,0)	(1,0)	(1,0)	(1,0)	(1,0)	(1,0)	(1,0)	(1,0)	(1,0)	(1,0)	(1,0)	(1,0)	(1,0)	(1,0)	(1,0)	(1,0)	

L2C -64>	(1,75)	(3,23)	(-9,18)	(4,7)	(2,1)	(-3,28)	(9,18)	(7,37)	(6,100)	(-8,2)	(-1,6)	(8,19)	(5,3)	(10,19)	(-15,12)	(-10,10)	
L2C -63>	(1,0)	(1,0)	(1,0)	(1,0)	(1,0)	(1,0)	(1,0)	(1,0)	(1,0)	(1,0)	(1,0)	(1,0)	(1,0)	(1,0)	(1,0)	(1,0)	
L2C -62>	(1,1)	(4,1)	(1,0)	(1,0)	(1,0)	(1,0)	(1,0)	(1,0)	(1,0)	(1,0)	(1,0)	(1,0)	(1,0)	(1,0)	(1,0)	(1,0)	
L2C -61>	(1,0)	(1,0)	(1,0)	(1,0)	(1,0)	(1,0)	(1,0)	(1,0)	(1,0)	(1,0)	(1,0)	(1,0)	(1,0)	(1,0)	(1,0)	(1,0)	
L2C -60>	(1,0)	(1,0)	(1,0)	(1,0)	(1,0)	(1,0)	(1,0)	(1,0)	(1,0)	(1,0)	(1,0)	(1,0)	(1,0)	(1,0)	(1,0)	(1,0)	
L2C -59>	(1,1)	(1,0)	(1,0)	(1,0)	(1,0)	(1,0)	(1,0)	(1,0)	(1,0)	(1,0)	(1,0)	(1,0)	(1,0)	(1,0)	(1,0)	(1,0)	
L2C -58>	(1,1)	(1,0)	(1,0)	(1,0)	(1,0)	(1,0)	(1,0)	(1,0)	(1,0)	(1,0)	(1,0)	(1,0)	(1,0)	(1,0)	(1,0)	(1,0)	
L2C -57>	(1,0)	(1,0)	(1,0)	(1,0)	(1,0)	(1,0)	(1,0)	(1,0)	(1,0)	(1,0)	(1,0)	(1,0)	(1,0)	(1,0)	(1,0)	(1,0)	
L2C -56>	(1,1)	(23,1)	(1,0)	(1,0)	(1,0)	(1,0)	(1,0)	(1,0)	(1,0)	(1,0)	(1,0)	(1,0)	(1,0)	(1,0)	(1,0)	(1,0)	
L2C -55>	(1,1)	(1,0)	(1,0)	(1,0)	(1,0)	(1,0)	(1,0)	(1,0)	(1,0)	(1,0)	(1,0)	(1,0)	(1,0)	(1,0)	(1,0)	(1,0)	
L2C -54>	(1,1)	(53,1)	(1,0)	(1,0)	(1,0)	(1,0)	(1,0)	(1,0)	(1,0)	(1,0)	(1,0)	(1,0)	(1,0)	(1,0)	(1,0)	(1,0)	
L2C -53>	(53,1)	(50,1)	(1,0)	(1,0)	(1,0)	(1,0)	(1,0)	(1,0)	(1,0)	(1,0)	(1,0)	(1,0)	(1,0)	(1,0)	(1,0)	(1,0)	
L2C -52>	(1,1)	(1,0)	(1,0)	(1,0)	(1,0)	(1,0)	(1,0)	(1,0)	(1,0)	(1,0)	(1,0)	(1,0)	(1,0)	(1,0)	(1,0)	(1,0)	
L2C -51>	(1,1)	(1,0)	(1,0)	(1,0)	(1,0)	(1,0)	(1,0)	(1,0)	(1,0)	(1,0)	(1,0)	(1,0)	(1,0)	(1,0)	(1,0)	(1,0)	
L2C -50>	(1,0)	(1,0)	(1,0)	(1,0)	(1,0)	(1,0)	(1,0)	(1,0)	(1,0)	(1,0)	(1,0)	(1,0)	(1,0)	(1,0)	(1,0)	(1,0)	
L2C -49>	(1,1)	(1,0)	(1,0)	(1,0)	(1,0)	(1,0)	(1,0)	(1,0)	(1,0)	(1,0)	(1,0)	(1,0)	(1,0)	(1,0)	(1,0)	(1,0)	
L2C -48>	(1,1)	(1,0)	(1,0)	(1,0)	(1,0)	(1,0)	(1,0)	(1,0)	(1,0)	(1,0)	(1,0)	(1,0)	(1,0)	(1,0)	(1,0)	(1,0)	
L2C -47>	(1,0)	(1,0)	(1,0)	(1,0)	(1,0)	(1,0)	(1,0)	(1,0)	(1,0)	(1,0)	(1,0)	(1,0)	(1,0)	(1,0)	(1,0)	(1,0)	
L2C -46>	(1,0)	(1,0)	(1,0)	(1,0)	(1,0)	(1,0)	(1,0)	(1,0)	(1,0)	(1,0)	(1,0)	(1,0)	(1,0)	(1,0)	(1,0)	(1,0)	
L2C -45>	(1,0)	(1,0)	(1,0)	(1,0)	(1,0)	(1,0)	(1,0)	(1,0)	(1,0)	(1,0)	(1,0)	(1,0)	(1,0)	(1,0)	(1,0)	(1,0)	
L2C -44>	(5,1)	(1,0)	(1,0)	(1,0)	(1,0)	(1,0)	(1,0)	(1,0)	(1,0)	(1,0)	(1,0)	(1,0)	(1,0)	(1,0)	(1,0)	(1,0)	
L2C -43>	(1,0)	(1,0)	(1,0)	(1,0)	(1,0)	(1,0)	(1,0)	(1,0)	(1,0)	(1,0)	(1,0)	(1,0)	(1,0)	(1,0)	(1,0)	(1,0)	
L2C -42>	(1,1)	(1,0)	(1,0)	(1,0)	(1,0)	(1,0)	(1,0)	(1,0)	(1,0)	(1,0)	(1,0)	(1,0)	(1,0)	(1,0)	(1,0)	(1,0)	
L2C -41>	(1,1)	(1,0)	(1,0)	(1,0)	(1,0)	(1,0)	(1,0)	(1,0)	(1,0)	(1,0)	(1,0)	(1,0)	(1,0)	(1,0)	(1,0)	(1,0)	
L2C -40>	(1,0)	(1,0)	(1,0)	(1,0)	(1,0)	(1,0)	(1,0)	(1,0)	(1,0)	(1,0)	(1,0)	(1,0)	(1,0)	(1,0)	(1,0)	(1,0)	
L2C -39>	(-8,1)	(1,0)	(1,0)	(1,0)	(1,0)	(1,0)	(1,0)	(1,0)	(1,0)	(1,0)	(1,0)	(1,0)	(1,0)	(1,0)	(1,0)	(1,0)	
L2C -38>	(33,1)	(1,0)	(1,0)	(1,0)	(1,0)	(1,0)	(1,0)	(1,0)	(1,0)	(1,0)	(1,0)	(1,0)	(1,0)	(1,0)	(1,0)	(1,0)	
L2C -37>	(-2,1)	(1,0)	(1,0)	(1,0)	(1,0)	(1,0)	(1,0)	(1,0)	(1,0)	(1,0)	(1,0)	(1,0)	(1,0)	(1,0)	(1,0)	(1,0)	
L2C -36>	(1,0)	(1,0)	(1,0)	(1,0)	(1,0)	(1,0)	(1,0)	(1,0)	(1,0)	(1,0)	(1,0)	(1,0)	(1,0)	(1,0)	(1,0)	(1,0)	
L2C -35>	(-15,1)	(1,1)	(23,1)	(1,0)	(1,0)	(1,0)	(1,0)	(1,0)	(1,0)	(1,0)	(1,0)	(1,0)	(1,0)	(1,0)	(1,0)	(1,0)	
L2C -34>	(1,1)	(-1,1)	(1,0)	(1,0)	(1,0)	(1,0)	(1,0)	(1,0)	(1,0)	(1,0)	(1,0)	(1,0)	(1,0)	(1,0)	(1,0)	(1,0)	
L2C -33>	(1,3)	(6,2)	(1,0)	(1,0)	(1,0)	(1,0)	(1,0)	(1,0)	(1,0)	(1,0)	(1,0)	(1,0)	(1,0)	(1,0)	(1,0)	(1,0)	
L2C -32>	(11,1)	(-21,1)	(29,1)	(1,1)	(32,1)	(1,0)	(1,0)	(1,0)	(1,0)	(1,0)	(1,0)	(1,0)	(1,0)	(1,0)	(1,0)	(1,0)	
L2C -31>	(-17,1)	(1,1)	(1,0)	(1,0)	(1,0)	(1,0)	(1,0)	(1,0)	(1,0)	(1,0)	(1,0)	(1,0)	(1,0)	(1,0)	(1,0)	(1,0)	
L2C -30>	(11,1)	(6,6)	(1,0)	(1,0)	(1,0)	(1,0)	(1,0)	(1,0)	(1,0)	(1,0)	(1,0)	(1,0)	(1,0)	(1,0)	(1,0)	(1,0)	
L2C -29>	(24,1)	(1,1)	(6,1)	(1,0)	(1,0)	(1,0)	(1,0)	(1,0)	(1,0)	(1,0)	(1,0)	(1,0)	(1,0)	(1,0)	(1,0)	(1,0)	
L2C -28>	(2,1)	(1,1)	(1,0)	(1,0)	(1,0)	(1,0)	(1,0)	(1,0)	(1,0)	(1,0)	(1,0)	(1,0)	(1,0)	(1,0)	(1,0)	(1,0)	
L2C -27>	(1,3)	(6,1)	(2,1)	(1,0)	(1,0)	(1,0)	(1,0)	(1,0)	(1,0)	(1,0)	(1,0)	(1,0)	(1,0)	(1,0)	(1,0)	(1,0)	
L2C -26>	(1,0)	(1,0)	(1,0)	(1,0)	(1,0)	(1,0)	(1,0)	(1,0)	(1,0)	(1,0)	(1,0)	(1,0)	(1,0)	(1,0)	(1,0)	(1,0)	
L2C -25>	(-2,1)	(6,1)	(1,0)	(1,0)	(1,0)	(1,0)	(1,0)	(1,0)	(1,0)	(1,0)	(1,0)	(1,0)	(1,0)	(1,0)	(1,0)	(1,0)	
L2C -24>	(13,1)	(-8,1)	(19,1)	(1,0)	(1,0)	(1,0)	(1,0)	(1,0)	(1,0)	(1,0)	(1,0)	(1,0)	(1,0)	(1,0)	(1,0)	(1,0)	
L2C -23>	(53,1)	(1,0)	(1,0)	(1,0)	(1,0)	(1,0)	(1,0)	(1,0)	(1,0)	(1,0)	(1,0)	(1,0)	(1,0)	(1,0)	(1,0)	(1,0)	
L2C -22>	(-1,1)	(6,2)	(29,1)	(7,1)	(1,0)	(1,0)	(1,0)	(1,0)	(1,0)	(1,0)	(1,0)	(1,0)	(1,0)	(1,0)	(1,0)	(1,0)	
L2C -21>	(1,1)	(53,1)	(-2,1)	(1,0)	(1,0)	(1,0)	(1,0)	(1,0)	(1,0)	(1,0)	(1,0)	(1,0)	(1,0)	(1,0)	(1,0)	(1,0)	
L2C -20>	(19,1)	(10,1)	(1,0)	(1,0)	(1,0)	(1,0)	(1,0)	(1,0)	(1,0)	(1,0)	(1,0)	(1,0)	(1,0)	(1,0)	(1,0)	(1,0)	
L2C -19>	(1,0)	(1,0)	(1,0)	(1,0)	(1,0)	(1,0)	(1,0)	(1,0)	(1,0)	(1,0)	(1,0)	(1,0)	(1,0)	(1,0)	(1,0)	(1,0)	
L2C -18>	(2,1)	(1,1)	(7,1)	(1,0)	(1,0)	(1,0)	(1,0)	(1,0)	(1,0)	(1,0)	(1,0)	(1,0)	(1,0)	(1,0)	(1,0)	(1,0)	
L2C -17>	(5,2)	(1,1)	(1,0)	(1,0)	(1,0)	(1,0)	(1,0)	(1,0)	(1,0)	(1,0)	(1,0)	(1,0)	(1,0)	(1,0)	(1,0)	(1,0)	
L2C -16>	(1,4)	(-1,1)	(19,1)	(6,4)	(4,1)	(12,1)	(7,1)	(1,0)	(1,0)	(1,0)	(1,0)	(1,0)	(1,0)	(1,0)	(1,0)	(1,0)	
L2C -15>	(1,2)	(6,7)	(-2,2)	(1,0)	(1,0)	(1,0)	(1,0)	(1,0)	(1,0)	(1,0)	(1,0)	(1,0)	(1,0)	(1,0)	(1,0)	(1,0)	
L2C -14>	(1,2)	(2,1)	(-1,1)	(1,0)	(1,0)	(1,0)	(1,0)	(1,0)	(1,0)	(1,0)	(1,0)	(1,0)	(1,0)	(1,0)	(1,0)	(1,0)	
L2C -13>	(10,1)	(1,0)	(1,0)	(1,0)	(1,0)	(1,0)	(1,0)	(1,0)	(1,0)	(1,0)	(1,0)	(1,0)	(1,0)	(1,0)	(1,0)	(1,0)	
L2C -12>	(1,4)	(11,1)	(9,1)	(-4,1)	(1,0)	(1,0)	(1,0)	(1,0)	(1,0)	(1,0)	(1,0)	(1,0)	(1,0)	(1,0)	(1,0)	(1,0)	
L2C -11>	(1,3)	(4,1)	(1,0)	(1,0)	(1,0)	(1,0)	(1,0)	(1,0)	(1,0)	(1,0)	(1,0)	(1,0)	(1,0)	(1,0)	(1,0)	(1,0)	
L2C -10>	(-17,1)	(1,1)	(-1,2)	(7,3)	(6,1)	(1,0)	(1,0)	(1,0)	(1,0)	(1,0)	(1,0)	(1,0)	(1,0)	(1,0)	(1,0)	(1,0)	
L2C -9>	(1,3)	(6,13)	(-5,1)	(15,1)	(-2,2)	(1,0)	(1,0)	(1,0)	(1,0)	(1,0)	(1,0)	(1,0)	(1,0)	(1,0)	(1,0)	(1,0)	
L2C -8>	(7,1)	(3,1)	(1,2)	(2,1)	(8,1)	(1,0)	(1,0)	(1,0)	(1,0)	(1,0)	(1,0)	(1,0)	(1,0)	(1,0)	(1,0)	(1,0)	
L2C -7>	(1,1)	(-1,1)	(2,1)	(-12,1)	(7,1)	(11,1)	(1,0)	(1,0)	(1,0)	(1,0)	(1,0)	(1,0)	(1,0)	(1,0)	(1,0)	(1,0)	
L2C -6>	(-1,2)	(1,3)	(6,1)	(1,0)	(1,0)	(1,0)	(1,0)	(1,0)	(1,0)	(1,0)	(1,0)	(1,0)	(1,0)	(1,0)	(1,0)	(1,0)	
L2C -5>	(-1,1)	(3,1)	(-3,1)	(1,2)	(1,0)	(1,0)	(1,0)	(1,0)	(1,0)	(1,0)	(1,0)	(1,0)	(1,0)	(1,0)	(1,0)	(1,0)	
L2C -4>	(1,2)	(-8,1)	(-4,1)	(-1,2)	(2,1)	(7,3)	(-9,1)	(1,0)	(1,0)	(1,0)	(1,0)	(1,0)	(1,0)	(1,0)	(1,0)	(1,0)	
L2C -3>	(4,1)	(1,7)	(5,1)	(-4,1)	(-5,1)	(-14,1)	(12,1)	(6,15)	(7,2)	(-1,1)	(1,0)	(1,0)	(1,0)	(1,0)	(1,0)	(1,0)	
L2C -2>	(1,1)	(-1,3)	(0,1)	(-29,1)	(-12,1)	(14,5)	(1,0)	(1,0)	(1,0)	(1,0)	(1,0)	(1,0)	(1,0)	(1,0)	(1,0)	(1,0)	
L2C -1>	(-1,21)	(1,4)	(-24,1)	(-3,1)	(3,2)	(20,1)	(58,1)	(33,1)	(-4,1)	(14,3)	(11,2)	(9,1)	(6,1)	(2,2)	(12,1)	(4,1)	
L2C 0>	(-54,1)	(0,26)	(8,1)	(-32,1)	(-3,1)	(-2,1)	(1,0)	(1,0)	(1,0)	(1,0)	(1,0)	(1,0)	(1,0)	(1,0)	(1,0)	(1,0)	
L2C 1>	(1,210)	(0,1)	(-62,1)	(3,1)	(-42,0)	(-38,0)	(27,0)	(4,0)	(-3,0)	(42,0)	(5,0)	(-10,0)	(-6,0)	(-35,0)	(-14,0)	(-4,0)	
L2C 2>	(1,8)	(-8,1)	(-1,3)	(30,1)	(20,1)	(6,3)	(3,1)	(0,2)	(8,1)	(1,0)	(1,0)	(1,0)	(1,0)	(1,0)	(1,0)	(1,0)	
L2C 3>	(-27,1)	(10,1)	(1,4)	(-2,1)	(-5,1)	(21,1)	(6,1)	(-1,1)	(7,1)	(1,0)	(1,0)	(1,0)	(1,0)	(1,0)	(1,0)	(1,0)	
L2C 4>	(-3,4)	(-6,1)	(6,1)	(1,4)	(-1,1)	(9,1)	(-25,1)	(0,1)	(7,1)	(-33,2)	(-2,1)	(1,0)	(1,0)	(1,0)	(1,0)	(1,0)	
L2C 5>	(1,4)	(-16,2)	(-3,1)	(-4,1)	(4,1)	(-7,1)	(-30,1)	(1,0)	(1,0)	(1,0)	(1,0)	(1,0)	(1,0)	(1,0)	(1,0)	(1,0)	
L2C 6>	(-34,1)	(2,1)	(-1,5)	(-7,1)	(1,1)	(24,1)	(6,70)	(-3,6)	(-11,1)	(7,14)	(3,1)	(-33,1)	(-9,2)	(18,1)	(13,3)	(-27,2)	
L2C 7>	(-9,1)	(5,1)	(-7,1)	(6,22)	(1,1)	(-3,2)	(14,1)	(11,1)	(1,0)	(1,0)	(1,0)	(1,0)	(1,0)	(1,0)	(1,0)	(1,0)	
L2C 8>	(1,2)	(2,1)	(-8,1)	(-12,1)	(10,1)	(1,0)	(1,0)	(1,0)	(1,0)	(1,0)	(1,0)	(1,0)	(1,0)	(1,0)	(1,0)	(1,0)	
L2C 9>	(4,1)	(-6,1)	(1,2)	(-10,1)	(-1,1)	(1,0)	(1,0)	(1,0)	(1,0)	(1,0)	(1,0)	(1,0)	(1,0)	(1,0)	(1,0)	(1,0)	
L2C 10>	(-9,1)	(2,1)	(-1,1)	(-39,1)	(7,1)	(1,3)	(1,0)	(1,0)	(1,0)	(1,0)	(1,0)	(1,0)	(1,0)	(1,0)	(1,0)	(1,0)	
L2C 11>	(1,7)	(-16,1)	(-10,1)	(-9,1)	(-30,1)	(1,0)	(1,0)	(1,0)	(1,0)	(1,0)	(1,0)	(1,0)	(1,0)	(1,0)	(1,0)	(1,0)	
L2C 12>	(5,1)	(1,1)	(-1,1)	(-12,1)	(1,0)	(1,0)	(1,0)	(1,0)	(1,0)	(1,0)	(1,0)	(1,0)	(1,0)	(1,0)	(1,0)	(1,0)	
L2C 13>	(6,3)	(-25,1)	(1,0)	(1,0)	(1,0)	(1,0)	(1,0)	(1,0)	(1,0)	(1,0)	(1,0)	(1,0)	(1,0)	(1,0)	(1,0)	(1,0)	
L2C 14>	(-3,1)	(-30,1)	(6,4)	(1,0)	(1,0)	(1,0)	(1,0)	(1,0)	(1,0)	(1,0)	(1,0)	(1,0)	(1,0)	(1,0)	(1,0)	(1,0)	
L2C 15>	(-16,1)	(1,0)	(1,0)	(1,0)	(1,0)	(1,0)	(1,0)	(1,0)	(1,0)	(1,0)	(1,0)	(1,0)	(1,0)	(1,0)	(1,0)	(1,0)	
L2C 16>	(-15,1)	(1,0)	(1,0)	(1,0)	(1,0)	(1,0)	(1,0)	(1,0)	(1,0)	(1,0)	(1,0)	(1,0)	(1,0)	(1,0)	(1,0)	(1,0)	
L2C 17>	(1,0)	(1,0)	(1,0)	(1,0)	(1,0)	(1,0)	(1,0)	(1,0)	(1,0)	(1,0)	(1,0)	(1,0)	(1,0)	(1,0)	(1,0)	(1,0)	
L2C 18>	(-24,1)	(1,0)	(1,0)	(1,0)	(1,0)	(1,0)	(1,0)	(1,0)	(1,0)	(1,0)	(1,0)	(1,0)	(1,0)	(1,0)	(1,0)	(1,0)	
L2C 19>	(-18,1)	(1,2)	(6,2)	(-27,1)	(1,0)	(1,0)	(1,0)	(1,0)	(1,0)	(1,0)	(1,0)	(1,0)	(1,0)	(1,0)	(1,0)	(1,0)	
L2C 20>	(1,2)	(-3,1)	(33,1)	(1,0)	(1,0)	(1,0)	(1,0)	(1,0)	(1,0)	(1,0)	(1,0)	(1,0)	(1,0)	(1,0)	(1,0)	(1,0)	
L2C 21>	(1,1)	(1,0)	(1,0)	(1,0)	(1,0)	(1,0)	(1,0)	(1,0)	(1,0)	(1,0)	(1,0)	(1,0)	(1,0)	(1,0)	(1,0)	(1,0)	
L2C 22>	(1,0)	(1,0)	(1,0)	(1,0)	(1,0)	(1,0)	(1,0)	(1,0)	(1,0)	(1,0)	(1,0)	(1,0)	(1,0)	(1,0)	(1,0)	(1,0)	
L2C 23>	(-20,1)	(6,1)	(1,1)	(1,0)	(1,0)	(1,0)	(1,0)	(1,0)	(1,0)	(1,0)	(1,0)	(1,0)	(1,0)	(1,0)	(1,0)	(1,0)	
L2C 24>	(-18,1)	(1,1)	(1,0)	(1,0)	(1,0)	(1,0)	(1,0)	(1,0)	(1,0)	(1,0)	(1,0)	(1,0)	(1,0)	(1,0)	(1,0)	(1,0)	
L2C 25>	(1,0)	(1,0)	(1,0)	(1,0)	(1,0)	(1,0)	(1,0)	(1,0)	(1,0)	(1,0)	(1,0)	(1,0)	(1,0)	(1,0)	(1,0)	(1,0)	
L2C 26>	(4,1)	(-30,1)	(1,0)	(1,0)	(1,0)	(1,0)	(1,0)	(1,0)	(1,0)	(1,0)	(1,0)	(1,0)	(1,0)	(1,0)	(1,0)	(1,0)	
L2C 27>	(4,1)	(1,0)	(1,0)	(1,0)	(1,0)	(1,0)	(1,0)	(1,0)	(1,0)	(1,0)	(1,0)	(1,0)	(1,0)	(1,0)	(1,0)	(1,0)	
L2C 28>	(1,0)	(1,0)	(1,0)	(1,0)	(1,0)	(1,0)	(1,0)	(1,0)	(1,0)	(1,0)	(1,0)	(1,0)	(1,0)	(1,0)	(1,0)	(1,0)	
L2C 29>	(4,1)	(6,1)	(1,0)	(1,0)	(1,0)	(1,0)	(1,0)	(1,0)	(1,0)	(1,0)	(1,0)	(1,0)	(1,0)	(1,0)	(1,0)	(1,0)	
L2C 30>	(1,1)	(-32,1)	(-53,1)	(1,0)	(1,0)	(1,0)	(1,0)	(1,0)	(1,0)	(1,0)	(1,0)	(1,0)	(1,0)	(1,0)	(1,0)	(1,0)	
L2C 31>	(8,1)	(-24,1)	(-18,1)	(1,0)	(1,0)	(1,0)	(1,0)	(1,0)	(1,0)	(1,0)	(1,0)	(1,0)	(1,0)	(1,0)	(1,0)	(1,0)	
L2C 32>	(-27,1)	(1,0)	(1,0)	(1,0)	(1,0)	(1,0)	(1,0)	(1,0)	(1,0)	(1,0)	(1,0)	(1,0)	(1,0)	(1,0)	(1,0)	(1,0)	
L2C 33>	(-32,2)	(0,1)	(1,0)	(1,0)	(1,0)	(1,0)	(1,0)	(1,0)	(1,0)	(1,0)	(1,0)	(1,0)	(1,0)	(1,0)	(1,0)	(1,0)	
L2C 34>	(1,0)	(1,0)	(1,0)	(1,0)	(1,0)	(1,0)	(1,0)	(1,0)	(1,0)	(1,0)	(1,0)	(1,0)	(1,0)	(1,0)	(1,0)	(1,0)	
L2C 35>	(1,0)	(1,0)	(1,0)	(1,0)	(1,0)	(1,0)	(1,0)	(1,0)	(1,0)	(1,0)	(1,0)	(1,0)	(1,0)	(1,0)	(1,0)	(1,0)	
L2C 36>	(1,0)	(1,0)	(1,0)	(1,0)	(1,0)	(1,0)	(1,0)	(1,0)	(1,0)	(1,0)	(1,0)	(1,0)	(1,0)	(1,0)	(1,0)	(1,0)	
L2C 37>	(1,0)	(1,0)	(1,0)	(1,0)	(1,0)	(1,0)	(1,0)	(1,0)	(1,0)	(1,0)	(1,0)	(1,0)	(1,0)	(1,0)	(1,0)	(1,0)	
L2C 38>	(1,0)	(1,0)	(1,0)	(1,0)	(1,0)	(1,0)	(1,0)	(1,0)	(1,0)	(1,0)	(1,0)	(1,0)	(1,0)	(1,0)	(1,0)	(1,0)	
L2C 39>	(1,0)	(1,0)	(1,0)	(1,0)	(1,0)	(1,0)	(1,0)	(1,0)	(1,0)	(1,0)	(1,0)	(1,0)	(1,0)	(1,0)	(1,0)	(1,0)	
L2C 40>	(1,0)	(1,0)	(1,0)	(1,0)	(1,0)	(1,0)	(1,0)	(1,0)	(1,0)	(1,0)	(1,0)	(1,0)	(1,0)	(1,0)	(1,0)	(1,0)	
L2C 41>	(1,0)	(1,0)	(1,0)	(1,0)	(1,0)	(1,0)	(1,0)	(1,0)	(1,0)	(1,0)	(1,0)	(1,0)	(1,0)	(1,0)	(1,0)	(1,0)	
L2C 42>	(1,1)	(1,0)	(1,0)	(1,0)	(1,0)	(1,0)	(1,0)	(1,0)	(1,0)	(1,0)	(1,0)	(1,0)	(1,0)	(1,0)	(1,0)	(1,0)	
L2C 43>	(1,0)	(1,0)	(1,0)	(1,0)	(1,0)	(1,0)	(1,0)	(1,0)	(1,0)	(1,0)	(1,0)	(1,0)	(1,0)	(1,0)	(1,0)	(1,0)	
L2C 44>	(1,0)	(1,0)	(1,0)	(1,0)	(1,0)	(1,0)	(1,0)	(1,0)	(1,0)	(1,0)	(1,0)	(1,0)	(1,0)	(1,0)	(1,0)	(1,0)	
L2C 45>	(1,0)	(1,0)	(1,0)	(1,0)	(1,0)	(1,0)	(1,0)	(1,0)	(1,0)	(1,0)	(1,0)	(1,0)	(1,0)	(1,0)	(1,0)	(1,0)	
L2C 46>	(1,0)	(1,0)	(1,0)	(1,0)	(1,0)	(1,0)	(1,0)	(1,0)	(1,0)	(1,0)	(1,0)	(1,0)	(1,0)	(1,0)	(1,0)	(1,0)	
L2C 47>	(1,0)	(1,0)	(1,0)	(1,0)	(1,0)	(1,0)	(1,0)	(1,0)	(1,0)	(1,0)	(1,0)	(1,0)	(1,0)	(1,0)	(1,0)	(1,0)	
L2C 48>	(1,0)	(1,0)	(1,0)	(1,0)	(1,0)	(1,0)	(1,0)	(1,0)	(1,0)	(1,0)	(1,0)	(1,0)	(1,0)	(1,0)	(1,0)	(1,0)	
L2C 49>	(1,0)	(1,0)	(1,0)	(1,0)	(1,0)	(1,0)	(1,0)	(1,0)	(1,0)	(1,0)	(1,0)	(1,0)	(1,0)	(1,0)	(1,0)	(1,0)	
L2C 50>	(4,1)	(1,0)	(1,0)	(1,0)	(1,0)	(1,0)	(1,0)	(1,0)	(1,0)	(1,0)	(1,0)	(1,0)	(1,0)	(1,0)	(1,0)	(1,0)	
L2C 51>	(1,0)	(1,0)	(1,0)	(1,0)	(1,0)	(1,0)	(1,0)	(1,0)	(1,0)	(1,0)	(1,0)	(1,0)	(1,0)	(1,0)	(1,0)	(1,0)	
L2C 52>	(1,0)	(1,0)	(1,0)	(1,0)	(1,0)	(1,0)	(1,0)	(1,0)	(1,0)	(1,0)	(1,0)	(1,0)	(1,0)	(1,0)	(1,0)	(1,0)	
L2C 53>	(0,3)	(-30,1)	(1,0)	(1,0)	(1,0)	(1,0)	(1,0)	(1,0)	(1,0)	(1,0)	(1,0)	(1,0)	(1,0)	(1,0)	(1,0)	(1,0)	
L2C 54>	(1,0)	(1,0)	(1,0)	(1,0)	(1,0)	(1,0)	(1,0)	(1,0)	(1,0)	(1,0)	(1,0)	(1,0)	(1,0)	(1,0)	(1,0)	(1,0)	
L2C 55>	(1,0)	(1,0)	(1,0)	(1,0)	(1,0)	(1,0)	(1,0)	(1,0)	(1,0)	(1,0)	(1,0)	(1,0)	(1,0)	(1,0)	(1,0)	(1,0)	
L2C 56>	(1,0)	(1,0)	(1,0)	(1,0)	(1,0)	(1,0)	(1,0)	(1,0)	(1,0)	(1,0)	(1,0)	(1,0)	(1,0)	(1,0)	(1,0)	(1,0)	
L2C 57>	(1,0)	(1,0)	(1,0)	(1,0)	(1,0)	(1,0)	(1,0)	(1,0)	(1,0)	(1,0)	(1,0)	(1,0)	(1,0)	(1,0)	(1,0)	(1,0)	
L2C 58>	(1,0)	(1,0)	(1,0)	(1,0)	(1,0)	(1,0)	(1,0)	(1,0)	(1,0)	(1,0)	(1,0)	(1,0)	(1,0)	(1,0)	(1,0)	(1,0)	
L2C 59>	(1,0)	(1,0)	(1,0)	(1,0)	(1,0)	(1,0)	(1,0)	(1,0)	(1,0)	(1,0)	(1,0)	(1,0)	(1,0)	(1,0)	(1,0)	(1,0)	
L2C 60>	(1,0)	(1,0)	(1,0)	(1,0)	(1,0)	(1,0)	(1,0)	(1,0)	(1,0)	(1,0)	(1,0)	(1,0)	(1,0)	(1,0)	(1,0)	(1,0)	
L2C 61>	(1,0)	(1,0)	(1,0)	(1,0)	(1,0)	(1,0)	(1,0)	(1,0)	(1,0)	(1,0)	(1,0)	(1,0)	(1,0)	(1,0)	(1,0)	(1,0)	
L2C 62>	(1,0)	(1,0)	(1,0)	(1,0)	(1,0)	(1,0)	(1,0)	(1,0)	(1,0)	(1,0)	(1,0)	(1,0)	(1,0)	(1,0)	(1,0)	(1,0)	
L2C 63>	(1,0)	(1,0)	(1,0)	(1,0)	(1,0)	(1,0)	(1,0)	(1,0)	(1,0)	(1,0)	(1,0)	(1,0)	(1,0)	(1,0)	(1,0)	(1,0)	

DRAM Statistics
 CHANNEL 0
 RQ ROW_BUFFER_HIT:      30517  ROW_BUFFER_MISS:       5204
 DBUS_CONGESTED:      12843
 WQ ROW_BUFFER_HIT:       1777  ROW_BUFFER_MISS:       1478  FULL:          0

 AVG_CONGESTED_CYCLE: 6
