
*** ChampSim Multicore Out-of-Order Simulator ***

Warmup Instructions: 1000000
Simulation Instructions: 10000000
Number of CPUs: 1
LLC sets: 2048
LLC ways: 16
Off-chip DRAM Size: 4096 MB Channels: 1 Width: 64-bit Data Rate: 3200 MT/s

CPU 0 runs /home/virtualcse/Data-Prefetching/ChampSim/dpc3_traces/603.bwaves_s-5359B.champsimtrace.xz
Ultra pref. initializing...
Ultra pref. initialized
Ultra pref. initializing...
Ultra pref. initialized

Warmup complete CPU 0 instructions: 1000004 cycles: 335419 (Simulation time: 0 hr 0 min 2 sec) 

Heartbeat CPU 0 instructions: 10000001 cycles: 4653992 heartbeat IPC: 2.14869 cumulative IPC: 2.08402 (Simulation time: 0 hr 0 min 10 sec) 
Finished CPU 0 instructions: 10000000 cycles: 4794178 cumulative IPC: 2.08586 (Simulation time: 0 hr 0 min 11 sec) 

CPU 0 Branch Prediction Accuracy: 91.3578% MPKI: 12.2605 Average ROB Occupancy at Mispredict: 82.918

ChampSim completed all CPUs

Region of Interest Statistics

CPU 0 cumulative IPC: 2.08586 instructions: 10000000 cycles: 4794178
L1D TOTAL     ACCESS:    2339461  HIT:    2338621  MISS:        840
L1D LOAD      ACCESS:     984472  HIT:     984461  MISS:         11
L1D RFO       ACCESS:     340281  HIT:     339630  MISS:        651
L1D PREFETCH  ACCESS:    1014708  HIT:    1014530  MISS:        178
L1D WRITEBACK ACCESS:          0  HIT:          0  MISS:          0
L1D PREFETCH  REQUESTED:   14165431  ISSUED:   11433087  USEFUL:        169  USELESS:         76
L1D AVERAGE MISS LATENCY: 89.3548 cycles
L1I TOTAL     ACCESS:     125775  HIT:     125747  MISS:         28
L1I LOAD      ACCESS:     125775  HIT:     125747  MISS:         28
L1I RFO       ACCESS:          0  HIT:          0  MISS:          0
L1I PREFETCH  ACCESS:          0  HIT:          0  MISS:          0
L1I WRITEBACK ACCESS:          0  HIT:          0  MISS:          0
L1I PREFETCH  REQUESTED:          0  ISSUED:          0  USEFUL:          0  USELESS:          0
L1I AVERAGE MISS LATENCY: 51.3929 cycles
L2C TOTAL     ACCESS:       2780  HIT:       1894  MISS:        886
L2C LOAD      ACCESS:         38  HIT:         28  MISS:         10
L2C RFO       ACCESS:        638  HIT:        166  MISS:        472
L2C PREFETCH  ACCESS:       1901  HIT:       1497  MISS:        404
L2C WRITEBACK ACCESS:        203  HIT:        203  MISS:          0
L2C PREFETCH  REQUESTED:       9147  ISSUED:       4891  USEFUL:        306  USELESS:          0
L2C AVERAGE MISS LATENCY: 137.005 cycles
LLC TOTAL     ACCESS:        886  HIT:          0  MISS:        886
LLC LOAD      ACCESS:          9  HIT:          0  MISS:          9
LLC RFO       ACCESS:        472  HIT:          0  MISS:        472
LLC PREFETCH  ACCESS:        405  HIT:          0  MISS:        405
LLC WRITEBACK ACCESS:          0  HIT:          0  MISS:          0
LLC PREFETCH  REQUESTED:          0  ISSUED:          0  USEFUL:          0  USELESS:          0
LLC AVERAGE MISS LATENCY: 106.411 cycles
Major fault: 0 Minor fault: 43

L1D -512>	(-15,1)	(0,6)	(-20,1)	(-1,1)	(1,3)	(116,1)	(25,2)	(50,4)	(4,1)	(1,0)	(1,0)	(1,0)	(1,0)	(1,0)	(1,0)	(1,0)	
L1D -511>	(1,0)	(1,0)	(1,0)	(1,0)	(1,0)	(1,0)	(1,0)	(1,0)	(1,0)	(1,0)	(1,0)	(1,0)	(1,0)	(1,0)	(1,0)	(1,0)	
L1D -510>	(1,0)	(1,0)	(1,0)	(1,0)	(1,0)	(1,0)	(1,0)	(1,0)	(1,0)	(1,0)	(1,0)	(1,0)	(1,0)	(1,0)	(1,0)	(1,0)	
L1D -509>	(1,0)	(1,0)	(1,0)	(1,0)	(1,0)	(1,0)	(1,0)	(1,0)	(1,0)	(1,0)	(1,0)	(1,0)	(1,0)	(1,0)	(1,0)	(1,0)	
L1D -508>	(1,0)	(1,0)	(1,0)	(1,0)	(1,0)	(1,0)	(1,0)	(1,0)	(1,0)	(1,0)	(1,0)	(1,0)	(1,0)	(1,0)	(1,0)	(1,0)	
L1D -507>	(1,0)	(1,0)	(1,0)	(1,0)	(1,0)	(1,0)	(1,0)	(1,0)	(1,0)	(1,0)	(1,0)	(1,0)	(1,0)	(1,0)	(1,0)	(1,0)	
L1D -506>	(1,0)	(1,0)	(1,0)	(1,0)	(1,0)	(1,0)	(1,0)	(1,0)	(1,0)	(1,0)	(1,0)	(1,0)	(1,0)	(1,0)	(1,0)	(1,0)	
L1D -505>	(1,0)	(1,0)	(1,0)	(1,0)	(1,0)	(1,0)	(1,0)	(1,0)	(1,0)	(1,0)	(1,0)	(1,0)	(1,0)	(1,0)	(1,0)	(1,0)	
L1D -504>	(1,0)	(1,0)	(1,0)	(1,0)	(1,0)	(1,0)	(1,0)	(1,0)	(1,0)	(1,0)	(1,0)	(1,0)	(1,0)	(1,0)	(1,0)	(1,0)	
L1D -503>	(1,0)	(1,0)	(1,0)	(1,0)	(1,0)	(1,0)	(1,0)	(1,0)	(1,0)	(1,0)	(1,0)	(1,0)	(1,0)	(1,0)	(1,0)	(1,0)	
L1D -502>	(1,0)	(1,0)	(1,0)	(1,0)	(1,0)	(1,0)	(1,0)	(1,0)	(1,0)	(1,0)	(1,0)	(1,0)	(1,0)	(1,0)	(1,0)	(1,0)	
L1D -501>	(1,0)	(1,0)	(1,0)	(1,0)	(1,0)	(1,0)	(1,0)	(1,0)	(1,0)	(1,0)	(1,0)	(1,0)	(1,0)	(1,0)	(1,0)	(1,0)	
L1D -500>	(1,0)	(1,0)	(1,0)	(1,0)	(1,0)	(1,0)	(1,0)	(1,0)	(1,0)	(1,0)	(1,0)	(1,0)	(1,0)	(1,0)	(1,0)	(1,0)	
L1D -499>	(1,0)	(1,0)	(1,0)	(1,0)	(1,0)	(1,0)	(1,0)	(1,0)	(1,0)	(1,0)	(1,0)	(1,0)	(1,0)	(1,0)	(1,0)	(1,0)	
L1D -498>	(1,0)	(1,0)	(1,0)	(1,0)	(1,0)	(1,0)	(1,0)	(1,0)	(1,0)	(1,0)	(1,0)	(1,0)	(1,0)	(1,0)	(1,0)	(1,0)	
L1D -497>	(1,0)	(1,0)	(1,0)	(1,0)	(1,0)	(1,0)	(1,0)	(1,0)	(1,0)	(1,0)	(1,0)	(1,0)	(1,0)	(1,0)	(1,0)	(1,0)	
L1D -496>	(1,0)	(1,0)	(1,0)	(1,0)	(1,0)	(1,0)	(1,0)	(1,0)	(1,0)	(1,0)	(1,0)	(1,0)	(1,0)	(1,0)	(1,0)	(1,0)	
L1D -495>	(1,0)	(1,0)	(1,0)	(1,0)	(1,0)	(1,0)	(1,0)	(1,0)	(1,0)	(1,0)	(1,0)	(1,0)	(1,0)	(1,0)	(1,0)	(1,0)	
L1D -494>	(1,0)	(1,0)	(1,0)	(1,0)	(1,0)	(1,0)	(1,0)	(1,0)	(1,0)	(1,0)	(1,0)	(1,0)	(1,0)	(1,0)	(1,0)	(1,0)	
L1D -493>	(1,0)	(1,0)	(1,0)	(1,0)	(1,0)	(1,0)	(1,0)	(1,0)	(1,0)	(1,0)	(1,0)	(1,0)	(1,0)	(1,0)	(1,0)	(1,0)	
L1D -492>	(1,0)	(1,0)	(1,0)	(1,0)	(1,0)	(1,0)	(1,0)	(1,0)	(1,0)	(1,0)	(1,0)	(1,0)	(1,0)	(1,0)	(1,0)	(1,0)	
L1D -491>	(1,0)	(1,0)	(1,0)	(1,0)	(1,0)	(1,0)	(1,0)	(1,0)	(1,0)	(1,0)	(1,0)	(1,0)	(1,0)	(1,0)	(1,0)	(1,0)	
L1D -490>	(1,0)	(1,0)	(1,0)	(1,0)	(1,0)	(1,0)	(1,0)	(1,0)	(1,0)	(1,0)	(1,0)	(1,0)	(1,0)	(1,0)	(1,0)	(1,0)	
L1D -489>	(1,0)	(1,0)	(1,0)	(1,0)	(1,0)	(1,0)	(1,0)	(1,0)	(1,0)	(1,0)	(1,0)	(1,0)	(1,0)	(1,0)	(1,0)	(1,0)	
L1D -488>	(1,0)	(1,0)	(1,0)	(1,0)	(1,0)	(1,0)	(1,0)	(1,0)	(1,0)	(1,0)	(1,0)	(1,0)	(1,0)	(1,0)	(1,0)	(1,0)	
L1D -487>	(1,0)	(1,0)	(1,0)	(1,0)	(1,0)	(1,0)	(1,0)	(1,0)	(1,0)	(1,0)	(1,0)	(1,0)	(1,0)	(1,0)	(1,0)	(1,0)	
L1D -486>	(1,0)	(1,0)	(1,0)	(1,0)	(1,0)	(1,0)	(1,0)	(1,0)	(1,0)	(1,0)	(1,0)	(1,0)	(1,0)	(1,0)	(1,0)	(1,0)	
L1D -485>	(1,0)	(1,0)	(1,0)	(1,0)	(1,0)	(1,0)	(1,0)	(1,0)	(1,0)	(1,0)	(1,0)	(1,0)	(1,0)	(1,0)	(1,0)	(1,0)	
L1D -484>	(1,0)	(1,0)	(1,0)	(1,0)	(1,0)	(1,0)	(1,0)	(1,0)	(1,0)	(1,0)	(1,0)	(1,0)	(1,0)	(1,0)	(1,0)	(1,0)	
L1D -483>	(1,0)	(1,0)	(1,0)	(1,0)	(1,0)	(1,0)	(1,0)	(1,0)	(1,0)	(1,0)	(1,0)	(1,0)	(1,0)	(1,0)	(1,0)	(1,0)	
L1D -482>	(1,0)	(1,0)	(1,0)	(1,0)	(1,0)	(1,0)	(1,0)	(1,0)	(1,0)	(1,0)	(1,0)	(1,0)	(1,0)	(1,0)	(1,0)	(1,0)	
L1D -481>	(1,0)	(1,0)	(1,0)	(1,0)	(1,0)	(1,0)	(1,0)	(1,0)	(1,0)	(1,0)	(1,0)	(1,0)	(1,0)	(1,0)	(1,0)	(1,0)	
L1D -480>	(1,0)	(1,0)	(1,0)	(1,0)	(1,0)	(1,0)	(1,0)	(1,0)	(1,0)	(1,0)	(1,0)	(1,0)	(1,0)	(1,0)	(1,0)	(1,0)	
L1D -479>	(1,0)	(1,0)	(1,0)	(1,0)	(1,0)	(1,0)	(1,0)	(1,0)	(1,0)	(1,0)	(1,0)	(1,0)	(1,0)	(1,0)	(1,0)	(1,0)	
L1D -478>	(1,0)	(1,0)	(1,0)	(1,0)	(1,0)	(1,0)	(1,0)	(1,0)	(1,0)	(1,0)	(1,0)	(1,0)	(1,0)	(1,0)	(1,0)	(1,0)	
L1D -477>	(1,0)	(1,0)	(1,0)	(1,0)	(1,0)	(1,0)	(1,0)	(1,0)	(1,0)	(1,0)	(1,0)	(1,0)	(1,0)	(1,0)	(1,0)	(1,0)	
L1D -476>	(1,0)	(1,0)	(1,0)	(1,0)	(1,0)	(1,0)	(1,0)	(1,0)	(1,0)	(1,0)	(1,0)	(1,0)	(1,0)	(1,0)	(1,0)	(1,0)	
L1D -475>	(1,0)	(1,0)	(1,0)	(1,0)	(1,0)	(1,0)	(1,0)	(1,0)	(1,0)	(1,0)	(1,0)	(1,0)	(1,0)	(1,0)	(1,0)	(1,0)	
L1D -474>	(1,0)	(1,0)	(1,0)	(1,0)	(1,0)	(1,0)	(1,0)	(1,0)	(1,0)	(1,0)	(1,0)	(1,0)	(1,0)	(1,0)	(1,0)	(1,0)	
L1D -473>	(1,0)	(1,0)	(1,0)	(1,0)	(1,0)	(1,0)	(1,0)	(1,0)	(1,0)	(1,0)	(1,0)	(1,0)	(1,0)	(1,0)	(1,0)	(1,0)	
L1D -472>	(1,0)	(1,0)	(1,0)	(1,0)	(1,0)	(1,0)	(1,0)	(1,0)	(1,0)	(1,0)	(1,0)	(1,0)	(1,0)	(1,0)	(1,0)	(1,0)	
L1D -471>	(1,0)	(1,0)	(1,0)	(1,0)	(1,0)	(1,0)	(1,0)	(1,0)	(1,0)	(1,0)	(1,0)	(1,0)	(1,0)	(1,0)	(1,0)	(1,0)	
L1D -470>	(1,0)	(1,0)	(1,0)	(1,0)	(1,0)	(1,0)	(1,0)	(1,0)	(1,0)	(1,0)	(1,0)	(1,0)	(1,0)	(1,0)	(1,0)	(1,0)	
L1D -469>	(1,0)	(1,0)	(1,0)	(1,0)	(1,0)	(1,0)	(1,0)	(1,0)	(1,0)	(1,0)	(1,0)	(1,0)	(1,0)	(1,0)	(1,0)	(1,0)	
L1D -468>	(1,0)	(1,0)	(1,0)	(1,0)	(1,0)	(1,0)	(1,0)	(1,0)	(1,0)	(1,0)	(1,0)	(1,0)	(1,0)	(1,0)	(1,0)	(1,0)	
L1D -467>	(1,0)	(1,0)	(1,0)	(1,0)	(1,0)	(1,0)	(1,0)	(1,0)	(1,0)	(1,0)	(1,0)	(1,0)	(1,0)	(1,0)	(1,0)	(1,0)	
L1D -466>	(1,0)	(1,0)	(1,0)	(1,0)	(1,0)	(1,0)	(1,0)	(1,0)	(1,0)	(1,0)	(1,0)	(1,0)	(1,0)	(1,0)	(1,0)	(1,0)	
L1D -465>	(1,0)	(1,0)	(1,0)	(1,0)	(1,0)	(1,0)	(1,0)	(1,0)	(1,0)	(1,0)	(1,0)	(1,0)	(1,0)	(1,0)	(1,0)	(1,0)	
L1D -464>	(1,0)	(1,0)	(1,0)	(1,0)	(1,0)	(1,0)	(1,0)	(1,0)	(1,0)	(1,0)	(1,0)	(1,0)	(1,0)	(1,0)	(1,0)	(1,0)	
L1D -463>	(1,0)	(1,0)	(1,0)	(1,0)	(1,0)	(1,0)	(1,0)	(1,0)	(1,0)	(1,0)	(1,0)	(1,0)	(1,0)	(1,0)	(1,0)	(1,0)	
L1D -462>	(1,0)	(1,0)	(1,0)	(1,0)	(1,0)	(1,0)	(1,0)	(1,0)	(1,0)	(1,0)	(1,0)	(1,0)	(1,0)	(1,0)	(1,0)	(1,0)	
L1D -461>	(1,0)	(1,0)	(1,0)	(1,0)	(1,0)	(1,0)	(1,0)	(1,0)	(1,0)	(1,0)	(1,0)	(1,0)	(1,0)	(1,0)	(1,0)	(1,0)	
L1D -460>	(1,0)	(1,0)	(1,0)	(1,0)	(1,0)	(1,0)	(1,0)	(1,0)	(1,0)	(1,0)	(1,0)	(1,0)	(1,0)	(1,0)	(1,0)	(1,0)	
L1D -459>	(1,0)	(1,0)	(1,0)	(1,0)	(1,0)	(1,0)	(1,0)	(1,0)	(1,0)	(1,0)	(1,0)	(1,0)	(1,0)	(1,0)	(1,0)	(1,0)	
L1D -458>	(1,0)	(1,0)	(1,0)	(1,0)	(1,0)	(1,0)	(1,0)	(1,0)	(1,0)	(1,0)	(1,0)	(1,0)	(1,0)	(1,0)	(1,0)	(1,0)	
L1D -457>	(1,0)	(1,0)	(1,0)	(1,0)	(1,0)	(1,0)	(1,0)	(1,0)	(1,0)	(1,0)	(1,0)	(1,0)	(1,0)	(1,0)	(1,0)	(1,0)	
L1D -456>	(1,0)	(1,0)	(1,0)	(1,0)	(1,0)	(1,0)	(1,0)	(1,0)	(1,0)	(1,0)	(1,0)	(1,0)	(1,0)	(1,0)	(1,0)	(1,0)	
L1D -455>	(1,0)	(1,0)	(1,0)	(1,0)	(1,0)	(1,0)	(1,0)	(1,0)	(1,0)	(1,0)	(1,0)	(1,0)	(1,0)	(1,0)	(1,0)	(1,0)	
L1D -454>	(1,0)	(1,0)	(1,0)	(1,0)	(1,0)	(1,0)	(1,0)	(1,0)	(1,0)	(1,0)	(1,0)	(1,0)	(1,0)	(1,0)	(1,0)	(1,0)	
L1D -453>	(1,0)	(1,0)	(1,0)	(1,0)	(1,0)	(1,0)	(1,0)	(1,0)	(1,0)	(1,0)	(1,0)	(1,0)	(1,0)	(1,0)	(1,0)	(1,0)	
L1D -452>	(1,0)	(1,0)	(1,0)	(1,0)	(1,0)	(1,0)	(1,0)	(1,0)	(1,0)	(1,0)	(1,0)	(1,0)	(1,0)	(1,0)	(1,0)	(1,0)	
L1D -451>	(1,0)	(1,0)	(1,0)	(1,0)	(1,0)	(1,0)	(1,0)	(1,0)	(1,0)	(1,0)	(1,0)	(1,0)	(1,0)	(1,0)	(1,0)	(1,0)	
L1D -450>	(1,0)	(1,0)	(1,0)	(1,0)	(1,0)	(1,0)	(1,0)	(1,0)	(1,0)	(1,0)	(1,0)	(1,0)	(1,0)	(1,0)	(1,0)	(1,0)	
L1D -449>	(1,0)	(1,0)	(1,0)	(1,0)	(1,0)	(1,0)	(1,0)	(1,0)	(1,0)	(1,0)	(1,0)	(1,0)	(1,0)	(1,0)	(1,0)	(1,0)	
L1D -448>	(1,0)	(1,0)	(1,0)	(1,0)	(1,0)	(1,0)	(1,0)	(1,0)	(1,0)	(1,0)	(1,0)	(1,0)	(1,0)	(1,0)	(1,0)	(1,0)	
L1D -447>	(1,0)	(1,0)	(1,0)	(1,0)	(1,0)	(1,0)	(1,0)	(1,0)	(1,0)	(1,0)	(1,0)	(1,0)	(1,0)	(1,0)	(1,0)	(1,0)	
L1D -446>	(1,0)	(1,0)	(1,0)	(1,0)	(1,0)	(1,0)	(1,0)	(1,0)	(1,0)	(1,0)	(1,0)	(1,0)	(1,0)	(1,0)	(1,0)	(1,0)	
L1D -445>	(1,0)	(1,0)	(1,0)	(1,0)	(1,0)	(1,0)	(1,0)	(1,0)	(1,0)	(1,0)	(1,0)	(1,0)	(1,0)	(1,0)	(1,0)	(1,0)	
L1D -444>	(1,0)	(1,0)	(1,0)	(1,0)	(1,0)	(1,0)	(1,0)	(1,0)	(1,0)	(1,0)	(1,0)	(1,0)	(1,0)	(1,0)	(1,0)	(1,0)	
L1D -443>	(1,0)	(1,0)	(1,0)	(1,0)	(1,0)	(1,0)	(1,0)	(1,0)	(1,0)	(1,0)	(1,0)	(1,0)	(1,0)	(1,0)	(1,0)	(1,0)	
L1D -442>	(1,0)	(1,0)	(1,0)	(1,0)	(1,0)	(1,0)	(1,0)	(1,0)	(1,0)	(1,0)	(1,0)	(1,0)	(1,0)	(1,0)	(1,0)	(1,0)	
L1D -441>	(1,0)	(1,0)	(1,0)	(1,0)	(1,0)	(1,0)	(1,0)	(1,0)	(1,0)	(1,0)	(1,0)	(1,0)	(1,0)	(1,0)	(1,0)	(1,0)	
L1D -440>	(1,0)	(1,0)	(1,0)	(1,0)	(1,0)	(1,0)	(1,0)	(1,0)	(1,0)	(1,0)	(1,0)	(1,0)	(1,0)	(1,0)	(1,0)	(1,0)	
L1D -439>	(1,0)	(1,0)	(1,0)	(1,0)	(1,0)	(1,0)	(1,0)	(1,0)	(1,0)	(1,0)	(1,0)	(1,0)	(1,0)	(1,0)	(1,0)	(1,0)	
L1D -438>	(1,0)	(1,0)	(1,0)	(1,0)	(1,0)	(1,0)	(1,0)	(1,0)	(1,0)	(1,0)	(1,0)	(1,0)	(1,0)	(1,0)	(1,0)	(1,0)	
L1D -437>	(1,0)	(1,0)	(1,0)	(1,0)	(1,0)	(1,0)	(1,0)	(1,0)	(1,0)	(1,0)	(1,0)	(1,0)	(1,0)	(1,0)	(1,0)	(1,0)	
L1D -436>	(1,0)	(1,0)	(1,0)	(1,0)	(1,0)	(1,0)	(1,0)	(1,0)	(1,0)	(1,0)	(1,0)	(1,0)	(1,0)	(1,0)	(1,0)	(1,0)	
L1D -435>	(1,0)	(1,0)	(1,0)	(1,0)	(1,0)	(1,0)	(1,0)	(1,0)	(1,0)	(1,0)	(1,0)	(1,0)	(1,0)	(1,0)	(1,0)	(1,0)	
L1D -434>	(1,0)	(1,0)	(1,0)	(1,0)	(1,0)	(1,0)	(1,0)	(1,0)	(1,0)	(1,0)	(1,0)	(1,0)	(1,0)	(1,0)	(1,0)	(1,0)	
L1D -433>	(1,0)	(1,0)	(1,0)	(1,0)	(1,0)	(1,0)	(1,0)	(1,0)	(1,0)	(1,0)	(1,0)	(1,0)	(1,0)	(1,0)	(1,0)	(1,0)	
L1D -432>	(1,0)	(1,0)	(1,0)	(1,0)	(1,0)	(1,0)	(1,0)	(1,0)	(1,0)	(1,0)	(1,0)	(1,0)	(1,0)	(1,0)	(1,0)	(1,0)	
L1D -431>	(1,0)	(1,0)	(1,0)	(1,0)	(1,0)	(1,0)	(1,0)	(1,0)	(1,0)	(1,0)	(1,0)	(1,0)	(1,0)	(1,0)	(1,0)	(1,0)	
L1D -430>	(1,0)	(1,0)	(1,0)	(1,0)	(1,0)	(1,0)	(1,0)	(1,0)	(1,0)	(1,0)	(1,0)	(1,0)	(1,0)	(1,0)	(1,0)	(1,0)	
L1D -429>	(1,0)	(1,0)	(1,0)	(1,0)	(1,0)	(1,0)	(1,0)	(1,0)	(1,0)	(1,0)	(1,0)	(1,0)	(1,0)	(1,0)	(1,0)	(1,0)	
L1D -428>	(1,0)	(1,0)	(1,0)	(1,0)	(1,0)	(1,0)	(1,0)	(1,0)	(1,0)	(1,0)	(1,0)	(1,0)	(1,0)	(1,0)	(1,0)	(1,0)	
L1D -427>	(1,0)	(1,0)	(1,0)	(1,0)	(1,0)	(1,0)	(1,0)	(1,0)	(1,0)	(1,0)	(1,0)	(1,0)	(1,0)	(1,0)	(1,0)	(1,0)	
L1D -426>	(1,0)	(1,0)	(1,0)	(1,0)	(1,0)	(1,0)	(1,0)	(1,0)	(1,0)	(1,0)	(1,0)	(1,0)	(1,0)	(1,0)	(1,0)	(1,0)	
L1D -425>	(1,0)	(1,0)	(1,0)	(1,0)	(1,0)	(1,0)	(1,0)	(1,0)	(1,0)	(1,0)	(1,0)	(1,0)	(1,0)	(1,0)	(1,0)	(1,0)	
L1D -424>	(1,0)	(1,0)	(1,0)	(1,0)	(1,0)	(1,0)	(1,0)	(1,0)	(1,0)	(1,0)	(1,0)	(1,0)	(1,0)	(1,0)	(1,0)	(1,0)	
L1D -423>	(1,0)	(1,0)	(1,0)	(1,0)	(1,0)	(1,0)	(1,0)	(1,0)	(1,0)	(1,0)	(1,0)	(1,0)	(1,0)	(1,0)	(1,0)	(1,0)	
L1D -422>	(1,0)	(1,0)	(1,0)	(1,0)	(1,0)	(1,0)	(1,0)	(1,0)	(1,0)	(1,0)	(1,0)	(1,0)	(1,0)	(1,0)	(1,0)	(1,0)	
L1D -421>	(1,0)	(1,0)	(1,0)	(1,0)	(1,0)	(1,0)	(1,0)	(1,0)	(1,0)	(1,0)	(1,0)	(1,0)	(1,0)	(1,0)	(1,0)	(1,0)	
L1D -420>	(1,0)	(1,0)	(1,0)	(1,0)	(1,0)	(1,0)	(1,0)	(1,0)	(1,0)	(1,0)	(1,0)	(1,0)	(1,0)	(1,0)	(1,0)	(1,0)	
L1D -419>	(1,0)	(1,0)	(1,0)	(1,0)	(1,0)	(1,0)	(1,0)	(1,0)	(1,0)	(1,0)	(1,0)	(1,0)	(1,0)	(1,0)	(1,0)	(1,0)	
L1D -418>	(1,0)	(1,0)	(1,0)	(1,0)	(1,0)	(1,0)	(1,0)	(1,0)	(1,0)	(1,0)	(1,0)	(1,0)	(1,0)	(1,0)	(1,0)	(1,0)	
L1D -417>	(1,0)	(1,0)	(1,0)	(1,0)	(1,0)	(1,0)	(1,0)	(1,0)	(1,0)	(1,0)	(1,0)	(1,0)	(1,0)	(1,0)	(1,0)	(1,0)	
L1D -416>	(1,0)	(1,0)	(1,0)	(1,0)	(1,0)	(1,0)	(1,0)	(1,0)	(1,0)	(1,0)	(1,0)	(1,0)	(1,0)	(1,0)	(1,0)	(1,0)	
L1D -415>	(1,0)	(1,0)	(1,0)	(1,0)	(1,0)	(1,0)	(1,0)	(1,0)	(1,0)	(1,0)	(1,0)	(1,0)	(1,0)	(1,0)	(1,0)	(1,0)	
L1D -414>	(1,0)	(1,0)	(1,0)	(1,0)	(1,0)	(1,0)	(1,0)	(1,0)	(1,0)	(1,0)	(1,0)	(1,0)	(1,0)	(1,0)	(1,0)	(1,0)	
L1D -413>	(1,0)	(1,0)	(1,0)	(1,0)	(1,0)	(1,0)	(1,0)	(1,0)	(1,0)	(1,0)	(1,0)	(1,0)	(1,0)	(1,0)	(1,0)	(1,0)	
L1D -412>	(1,0)	(1,0)	(1,0)	(1,0)	(1,0)	(1,0)	(1,0)	(1,0)	(1,0)	(1,0)	(1,0)	(1,0)	(1,0)	(1,0)	(1,0)	(1,0)	
L1D -411>	(1,0)	(1,0)	(1,0)	(1,0)	(1,0)	(1,0)	(1,0)	(1,0)	(1,0)	(1,0)	(1,0)	(1,0)	(1,0)	(1,0)	(1,0)	(1,0)	
L1D -410>	(1,0)	(1,0)	(1,0)	(1,0)	(1,0)	(1,0)	(1,0)	(1,0)	(1,0)	(1,0)	(1,0)	(1,0)	(1,0)	(1,0)	(1,0)	(1,0)	
L1D -409>	(1,0)	(1,0)	(1,0)	(1,0)	(1,0)	(1,0)	(1,0)	(1,0)	(1,0)	(1,0)	(1,0)	(1,0)	(1,0)	(1,0)	(1,0)	(1,0)	
L1D -408>	(1,0)	(1,0)	(1,0)	(1,0)	(1,0)	(1,0)	(1,0)	(1,0)	(1,0)	(1,0)	(1,0)	(1,0)	(1,0)	(1,0)	(1,0)	(1,0)	
L1D -407>	(1,0)	(1,0)	(1,0)	(1,0)	(1,0)	(1,0)	(1,0)	(1,0)	(1,0)	(1,0)	(1,0)	(1,0)	(1,0)	(1,0)	(1,0)	(1,0)	
L1D -406>	(1,0)	(1,0)	(1,0)	(1,0)	(1,0)	(1,0)	(1,0)	(1,0)	(1,0)	(1,0)	(1,0)	(1,0)	(1,0)	(1,0)	(1,0)	(1,0)	
L1D -405>	(1,0)	(1,0)	(1,0)	(1,0)	(1,0)	(1,0)	(1,0)	(1,0)	(1,0)	(1,0)	(1,0)	(1,0)	(1,0)	(1,0)	(1,0)	(1,0)	
L1D -404>	(1,0)	(1,0)	(1,0)	(1,0)	(1,0)	(1,0)	(1,0)	(1,0)	(1,0)	(1,0)	(1,0)	(1,0)	(1,0)	(1,0)	(1,0)	(1,0)	
L1D -403>	(1,0)	(1,0)	(1,0)	(1,0)	(1,0)	(1,0)	(1,0)	(1,0)	(1,0)	(1,0)	(1,0)	(1,0)	(1,0)	(1,0)	(1,0)	(1,0)	
L1D -402>	(1,0)	(1,0)	(1,0)	(1,0)	(1,0)	(1,0)	(1,0)	(1,0)	(1,0)	(1,0)	(1,0)	(1,0)	(1,0)	(1,0)	(1,0)	(1,0)	
L1D -401>	(1,0)	(1,0)	(1,0)	(1,0)	(1,0)	(1,0)	(1,0)	(1,0)	(1,0)	(1,0)	(1,0)	(1,0)	(1,0)	(1,0)	(1,0)	(1,0)	
L1D -400>	(1,0)	(1,0)	(1,0)	(1,0)	(1,0)	(1,0)	(1,0)	(1,0)	(1,0)	(1,0)	(1,0)	(1,0)	(1,0)	(1,0)	(1,0)	(1,0)	
L1D -399>	(1,0)	(1,0)	(1,0)	(1,0)	(1,0)	(1,0)	(1,0)	(1,0)	(1,0)	(1,0)	(1,0)	(1,0)	(1,0)	(1,0)	(1,0)	(1,0)	
L1D -398>	(1,0)	(1,0)	(1,0)	(1,0)	(1,0)	(1,0)	(1,0)	(1,0)	(1,0)	(1,0)	(1,0)	(1,0)	(1,0)	(1,0)	(1,0)	(1,0)	
L1D -397>	(1,0)	(1,0)	(1,0)	(1,0)	(1,0)	(1,0)	(1,0)	(1,0)	(1,0)	(1,0)	(1,0)	(1,0)	(1,0)	(1,0)	(1,0)	(1,0)	
L1D -396>	(1,0)	(1,0)	(1,0)	(1,0)	(1,0)	(1,0)	(1,0)	(1,0)	(1,0)	(1,0)	(1,0)	(1,0)	(1,0)	(1,0)	(1,0)	(1,0)	
L1D -395>	(1,0)	(1,0)	(1,0)	(1,0)	(1,0)	(1,0)	(1,0)	(1,0)	(1,0)	(1,0)	(1,0)	(1,0)	(1,0)	(1,0)	(1,0)	(1,0)	
L1D -394>	(1,0)	(1,0)	(1,0)	(1,0)	(1,0)	(1,0)	(1,0)	(1,0)	(1,0)	(1,0)	(1,0)	(1,0)	(1,0)	(1,0)	(1,0)	(1,0)	
L1D -393>	(1,0)	(1,0)	(1,0)	(1,0)	(1,0)	(1,0)	(1,0)	(1,0)	(1,0)	(1,0)	(1,0)	(1,0)	(1,0)	(1,0)	(1,0)	(1,0)	
L1D -392>	(1,0)	(1,0)	(1,0)	(1,0)	(1,0)	(1,0)	(1,0)	(1,0)	(1,0)	(1,0)	(1,0)	(1,0)	(1,0)	(1,0)	(1,0)	(1,0)	
L1D -391>	(1,0)	(1,0)	(1,0)	(1,0)	(1,0)	(1,0)	(1,0)	(1,0)	(1,0)	(1,0)	(1,0)	(1,0)	(1,0)	(1,0)	(1,0)	(1,0)	
L1D -390>	(1,0)	(1,0)	(1,0)	(1,0)	(1,0)	(1,0)	(1,0)	(1,0)	(1,0)	(1,0)	(1,0)	(1,0)	(1,0)	(1,0)	(1,0)	(1,0)	
L1D -389>	(1,0)	(1,0)	(1,0)	(1,0)	(1,0)	(1,0)	(1,0)	(1,0)	(1,0)	(1,0)	(1,0)	(1,0)	(1,0)	(1,0)	(1,0)	(1,0)	
L1D -388>	(1,0)	(1,0)	(1,0)	(1,0)	(1,0)	(1,0)	(1,0)	(1,0)	(1,0)	(1,0)	(1,0)	(1,0)	(1,0)	(1,0)	(1,0)	(1,0)	
L1D -387>	(1,0)	(1,0)	(1,0)	(1,0)	(1,0)	(1,0)	(1,0)	(1,0)	(1,0)	(1,0)	(1,0)	(1,0)	(1,0)	(1,0)	(1,0)	(1,0)	
L1D -386>	(1,0)	(1,0)	(1,0)	(1,0)	(1,0)	(1,0)	(1,0)	(1,0)	(1,0)	(1,0)	(1,0)	(1,0)	(1,0)	(1,0)	(1,0)	(1,0)	
L1D -385>	(1,0)	(1,0)	(1,0)	(1,0)	(1,0)	(1,0)	(1,0)	(1,0)	(1,0)	(1,0)	(1,0)	(1,0)	(1,0)	(1,0)	(1,0)	(1,0)	
L1D -384>	(1,0)	(1,0)	(1,0)	(1,0)	(1,0)	(1,0)	(1,0)	(1,0)	(1,0)	(1,0)	(1,0)	(1,0)	(1,0)	(1,0)	(1,0)	(1,0)	
L1D -383>	(1,0)	(1,0)	(1,0)	(1,0)	(1,0)	(1,0)	(1,0)	(1,0)	(1,0)	(1,0)	(1,0)	(1,0)	(1,0)	(1,0)	(1,0)	(1,0)	
L1D -382>	(1,0)	(1,0)	(1,0)	(1,0)	(1,0)	(1,0)	(1,0)	(1,0)	(1,0)	(1,0)	(1,0)	(1,0)	(1,0)	(1,0)	(1,0)	(1,0)	
L1D -381>	(1,0)	(1,0)	(1,0)	(1,0)	(1,0)	(1,0)	(1,0)	(1,0)	(1,0)	(1,0)	(1,0)	(1,0)	(1,0)	(1,0)	(1,0)	(1,0)	
L1D -380>	(1,0)	(1,0)	(1,0)	(1,0)	(1,0)	(1,0)	(1,0)	(1,0)	(1,0)	(1,0)	(1,0)	(1,0)	(1,0)	(1,0)	(1,0)	(1,0)	
L1D -379>	(1,0)	(1,0)	(1,0)	(1,0)	(1,0)	(1,0)	(1,0)	(1,0)	(1,0)	(1,0)	(1,0)	(1,0)	(1,0)	(1,0)	(1,0)	(1,0)	
L1D -378>	(1,0)	(1,0)	(1,0)	(1,0)	(1,0)	(1,0)	(1,0)	(1,0)	(1,0)	(1,0)	(1,0)	(1,0)	(1,0)	(1,0)	(1,0)	(1,0)	
L1D -377>	(1,0)	(1,0)	(1,0)	(1,0)	(1,0)	(1,0)	(1,0)	(1,0)	(1,0)	(1,0)	(1,0)	(1,0)	(1,0)	(1,0)	(1,0)	(1,0)	
L1D -376>	(1,0)	(1,0)	(1,0)	(1,0)	(1,0)	(1,0)	(1,0)	(1,0)	(1,0)	(1,0)	(1,0)	(1,0)	(1,0)	(1,0)	(1,0)	(1,0)	
L1D -375>	(1,0)	(1,0)	(1,0)	(1,0)	(1,0)	(1,0)	(1,0)	(1,0)	(1,0)	(1,0)	(1,0)	(1,0)	(1,0)	(1,0)	(1,0)	(1,0)	
L1D -374>	(1,0)	(1,0)	(1,0)	(1,0)	(1,0)	(1,0)	(1,0)	(1,0)	(1,0)	(1,0)	(1,0)	(1,0)	(1,0)	(1,0)	(1,0)	(1,0)	
L1D -373>	(1,0)	(1,0)	(1,0)	(1,0)	(1,0)	(1,0)	(1,0)	(1,0)	(1,0)	(1,0)	(1,0)	(1,0)	(1,0)	(1,0)	(1,0)	(1,0)	
L1D -372>	(1,0)	(1,0)	(1,0)	(1,0)	(1,0)	(1,0)	(1,0)	(1,0)	(1,0)	(1,0)	(1,0)	(1,0)	(1,0)	(1,0)	(1,0)	(1,0)	
L1D -371>	(1,0)	(1,0)	(1,0)	(1,0)	(1,0)	(1,0)	(1,0)	(1,0)	(1,0)	(1,0)	(1,0)	(1,0)	(1,0)	(1,0)	(1,0)	(1,0)	
L1D -370>	(1,0)	(1,0)	(1,0)	(1,0)	(1,0)	(1,0)	(1,0)	(1,0)	(1,0)	(1,0)	(1,0)	(1,0)	(1,0)	(1,0)	(1,0)	(1,0)	
L1D -369>	(1,0)	(1,0)	(1,0)	(1,0)	(1,0)	(1,0)	(1,0)	(1,0)	(1,0)	(1,0)	(1,0)	(1,0)	(1,0)	(1,0)	(1,0)	(1,0)	
L1D -368>	(1,0)	(1,0)	(1,0)	(1,0)	(1,0)	(1,0)	(1,0)	(1,0)	(1,0)	(1,0)	(1,0)	(1,0)	(1,0)	(1,0)	(1,0)	(1,0)	
L1D -367>	(1,0)	(1,0)	(1,0)	(1,0)	(1,0)	(1,0)	(1,0)	(1,0)	(1,0)	(1,0)	(1,0)	(1,0)	(1,0)	(1,0)	(1,0)	(1,0)	
L1D -366>	(1,0)	(1,0)	(1,0)	(1,0)	(1,0)	(1,0)	(1,0)	(1,0)	(1,0)	(1,0)	(1,0)	(1,0)	(1,0)	(1,0)	(1,0)	(1,0)	
L1D -365>	(1,0)	(1,0)	(1,0)	(1,0)	(1,0)	(1,0)	(1,0)	(1,0)	(1,0)	(1,0)	(1,0)	(1,0)	(1,0)	(1,0)	(1,0)	(1,0)	
L1D -364>	(1,0)	(1,0)	(1,0)	(1,0)	(1,0)	(1,0)	(1,0)	(1,0)	(1,0)	(1,0)	(1,0)	(1,0)	(1,0)	(1,0)	(1,0)	(1,0)	
L1D -363>	(1,0)	(1,0)	(1,0)	(1,0)	(1,0)	(1,0)	(1,0)	(1,0)	(1,0)	(1,0)	(1,0)	(1,0)	(1,0)	(1,0)	(1,0)	(1,0)	
L1D -362>	(1,0)	(1,0)	(1,0)	(1,0)	(1,0)	(1,0)	(1,0)	(1,0)	(1,0)	(1,0)	(1,0)	(1,0)	(1,0)	(1,0)	(1,0)	(1,0)	
L1D -361>	(1,0)	(1,0)	(1,0)	(1,0)	(1,0)	(1,0)	(1,0)	(1,0)	(1,0)	(1,0)	(1,0)	(1,0)	(1,0)	(1,0)	(1,0)	(1,0)	
L1D -360>	(1,0)	(1,0)	(1,0)	(1,0)	(1,0)	(1,0)	(1,0)	(1,0)	(1,0)	(1,0)	(1,0)	(1,0)	(1,0)	(1,0)	(1,0)	(1,0)	
L1D -359>	(1,0)	(1,0)	(1,0)	(1,0)	(1,0)	(1,0)	(1,0)	(1,0)	(1,0)	(1,0)	(1,0)	(1,0)	(1,0)	(1,0)	(1,0)	(1,0)	
L1D -358>	(1,0)	(1,0)	(1,0)	(1,0)	(1,0)	(1,0)	(1,0)	(1,0)	(1,0)	(1,0)	(1,0)	(1,0)	(1,0)	(1,0)	(1,0)	(1,0)	
L1D -357>	(1,0)	(1,0)	(1,0)	(1,0)	(1,0)	(1,0)	(1,0)	(1,0)	(1,0)	(1,0)	(1,0)	(1,0)	(1,0)	(1,0)	(1,0)	(1,0)	
L1D -356>	(1,0)	(1,0)	(1,0)	(1,0)	(1,0)	(1,0)	(1,0)	(1,0)	(1,0)	(1,0)	(1,0)	(1,0)	(1,0)	(1,0)	(1,0)	(1,0)	
L1D -355>	(1,0)	(1,0)	(1,0)	(1,0)	(1,0)	(1,0)	(1,0)	(1,0)	(1,0)	(1,0)	(1,0)	(1,0)	(1,0)	(1,0)	(1,0)	(1,0)	
L1D -354>	(1,0)	(1,0)	(1,0)	(1,0)	(1,0)	(1,0)	(1,0)	(1,0)	(1,0)	(1,0)	(1,0)	(1,0)	(1,0)	(1,0)	(1,0)	(1,0)	
L1D -353>	(1,0)	(1,0)	(1,0)	(1,0)	(1,0)	(1,0)	(1,0)	(1,0)	(1,0)	(1,0)	(1,0)	(1,0)	(1,0)	(1,0)	(1,0)	(1,0)	
L1D -352>	(1,0)	(1,0)	(1,0)	(1,0)	(1,0)	(1,0)	(1,0)	(1,0)	(1,0)	(1,0)	(1,0)	(1,0)	(1,0)	(1,0)	(1,0)	(1,0)	
L1D -351>	(1,0)	(1,0)	(1,0)	(1,0)	(1,0)	(1,0)	(1,0)	(1,0)	(1,0)	(1,0)	(1,0)	(1,0)	(1,0)	(1,0)	(1,0)	(1,0)	
L1D -350>	(1,0)	(1,0)	(1,0)	(1,0)	(1,0)	(1,0)	(1,0)	(1,0)	(1,0)	(1,0)	(1,0)	(1,0)	(1,0)	(1,0)	(1,0)	(1,0)	
L1D -349>	(1,0)	(1,0)	(1,0)	(1,0)	(1,0)	(1,0)	(1,0)	(1,0)	(1,0)	(1,0)	(1,0)	(1,0)	(1,0)	(1,0)	(1,0)	(1,0)	
L1D -348>	(1,0)	(1,0)	(1,0)	(1,0)	(1,0)	(1,0)	(1,0)	(1,0)	(1,0)	(1,0)	(1,0)	(1,0)	(1,0)	(1,0)	(1,0)	(1,0)	
L1D -347>	(1,0)	(1,0)	(1,0)	(1,0)	(1,0)	(1,0)	(1,0)	(1,0)	(1,0)	(1,0)	(1,0)	(1,0)	(1,0)	(1,0)	(1,0)	(1,0)	
L1D -346>	(1,0)	(1,0)	(1,0)	(1,0)	(1,0)	(1,0)	(1,0)	(1,0)	(1,0)	(1,0)	(1,0)	(1,0)	(1,0)	(1,0)	(1,0)	(1,0)	
L1D -345>	(1,0)	(1,0)	(1,0)	(1,0)	(1,0)	(1,0)	(1,0)	(1,0)	(1,0)	(1,0)	(1,0)	(1,0)	(1,0)	(1,0)	(1,0)	(1,0)	
L1D -344>	(1,0)	(1,0)	(1,0)	(1,0)	(1,0)	(1,0)	(1,0)	(1,0)	(1,0)	(1,0)	(1,0)	(1,0)	(1,0)	(1,0)	(1,0)	(1,0)	
L1D -343>	(1,0)	(1,0)	(1,0)	(1,0)	(1,0)	(1,0)	(1,0)	(1,0)	(1,0)	(1,0)	(1,0)	(1,0)	(1,0)	(1,0)	(1,0)	(1,0)	
L1D -342>	(1,0)	(1,0)	(1,0)	(1,0)	(1,0)	(1,0)	(1,0)	(1,0)	(1,0)	(1,0)	(1,0)	(1,0)	(1,0)	(1,0)	(1,0)	(1,0)	
L1D -341>	(1,0)	(1,0)	(1,0)	(1,0)	(1,0)	(1,0)	(1,0)	(1,0)	(1,0)	(1,0)	(1,0)	(1,0)	(1,0)	(1,0)	(1,0)	(1,0)	
L1D -340>	(1,0)	(1,0)	(1,0)	(1,0)	(1,0)	(1,0)	(1,0)	(1,0)	(1,0)	(1,0)	(1,0)	(1,0)	(1,0)	(1,0)	(1,0)	(1,0)	
L1D -339>	(1,0)	(1,0)	(1,0)	(1,0)	(1,0)	(1,0)	(1,0)	(1,0)	(1,0)	(1,0)	(1,0)	(1,0)	(1,0)	(1,0)	(1,0)	(1,0)	
L1D -338>	(1,0)	(1,0)	(1,0)	(1,0)	(1,0)	(1,0)	(1,0)	(1,0)	(1,0)	(1,0)	(1,0)	(1,0)	(1,0)	(1,0)	(1,0)	(1,0)	
L1D -337>	(1,0)	(1,0)	(1,0)	(1,0)	(1,0)	(1,0)	(1,0)	(1,0)	(1,0)	(1,0)	(1,0)	(1,0)	(1,0)	(1,0)	(1,0)	(1,0)	
L1D -336>	(1,0)	(1,0)	(1,0)	(1,0)	(1,0)	(1,0)	(1,0)	(1,0)	(1,0)	(1,0)	(1,0)	(1,0)	(1,0)	(1,0)	(1,0)	(1,0)	
L1D -335>	(1,0)	(1,0)	(1,0)	(1,0)	(1,0)	(1,0)	(1,0)	(1,0)	(1,0)	(1,0)	(1,0)	(1,0)	(1,0)	(1,0)	(1,0)	(1,0)	
L1D -334>	(1,0)	(1,0)	(1,0)	(1,0)	(1,0)	(1,0)	(1,0)	(1,0)	(1,0)	(1,0)	(1,0)	(1,0)	(1,0)	(1,0)	(1,0)	(1,0)	
L1D -333>	(1,0)	(1,0)	(1,0)	(1,0)	(1,0)	(1,0)	(1,0)	(1,0)	(1,0)	(1,0)	(1,0)	(1,0)	(1,0)	(1,0)	(1,0)	(1,0)	
L1D -332>	(1,0)	(1,0)	(1,0)	(1,0)	(1,0)	(1,0)	(1,0)	(1,0)	(1,0)	(1,0)	(1,0)	(1,0)	(1,0)	(1,0)	(1,0)	(1,0)	
L1D -331>	(1,0)	(1,0)	(1,0)	(1,0)	(1,0)	(1,0)	(1,0)	(1,0)	(1,0)	(1,0)	(1,0)	(1,0)	(1,0)	(1,0)	(1,0)	(1,0)	
L1D -330>	(1,0)	(1,0)	(1,0)	(1,0)	(1,0)	(1,0)	(1,0)	(1,0)	(1,0)	(1,0)	(1,0)	(1,0)	(1,0)	(1,0)	(1,0)	(1,0)	
L1D -329>	(1,0)	(1,0)	(1,0)	(1,0)	(1,0)	(1,0)	(1,0)	(1,0)	(1,0)	(1,0)	(1,0)	(1,0)	(1,0)	(1,0)	(1,0)	(1,0)	
L1D -328>	(1,0)	(1,0)	(1,0)	(1,0)	(1,0)	(1,0)	(1,0)	(1,0)	(1,0)	(1,0)	(1,0)	(1,0)	(1,0)	(1,0)	(1,0)	(1,0)	
L1D -327>	(1,0)	(1,0)	(1,0)	(1,0)	(1,0)	(1,0)	(1,0)	(1,0)	(1,0)	(1,0)	(1,0)	(1,0)	(1,0)	(1,0)	(1,0)	(1,0)	
L1D -326>	(1,0)	(1,0)	(1,0)	(1,0)	(1,0)	(1,0)	(1,0)	(1,0)	(1,0)	(1,0)	(1,0)	(1,0)	(1,0)	(1,0)	(1,0)	(1,0)	
L1D -325>	(1,0)	(1,0)	(1,0)	(1,0)	(1,0)	(1,0)	(1,0)	(1,0)	(1,0)	(1,0)	(1,0)	(1,0)	(1,0)	(1,0)	(1,0)	(1,0)	
L1D -324>	(1,0)	(1,0)	(1,0)	(1,0)	(1,0)	(1,0)	(1,0)	(1,0)	(1,0)	(1,0)	(1,0)	(1,0)	(1,0)	(1,0)	(1,0)	(1,0)	
L1D -323>	(1,0)	(1,0)	(1,0)	(1,0)	(1,0)	(1,0)	(1,0)	(1,0)	(1,0)	(1,0)	(1,0)	(1,0)	(1,0)	(1,0)	(1,0)	(1,0)	
L1D -322>	(1,0)	(1,0)	(1,0)	(1,0)	(1,0)	(1,0)	(1,0)	(1,0)	(1,0)	(1,0)	(1,0)	(1,0)	(1,0)	(1,0)	(1,0)	(1,0)	
L1D -321>	(1,0)	(1,0)	(1,0)	(1,0)	(1,0)	(1,0)	(1,0)	(1,0)	(1,0)	(1,0)	(1,0)	(1,0)	(1,0)	(1,0)	(1,0)	(1,0)	
L1D -320>	(1,0)	(1,0)	(1,0)	(1,0)	(1,0)	(1,0)	(1,0)	(1,0)	(1,0)	(1,0)	(1,0)	(1,0)	(1,0)	(1,0)	(1,0)	(1,0)	
L1D -319>	(1,0)	(1,0)	(1,0)	(1,0)	(1,0)	(1,0)	(1,0)	(1,0)	(1,0)	(1,0)	(1,0)	(1,0)	(1,0)	(1,0)	(1,0)	(1,0)	
L1D -318>	(56,57)	(40,2)	(53,2)	(55,11)	(-1,11)	(316,9)	(54,2)	(317,5)	(30,1)	(49,3)	(314,4)	(310,5)	(313,2)	(312,3)	(311,3)	(52,1)	
L1D -317>	(55,46)	(51,1)	(-1,6)	(56,5)	(300,4)	(313,5)	(37,2)	(54,4)	(299,1)	(316,1)	(52,7)	(292,2)	(301,1)	(302,2)	(314,1)	(315,1)	
L1D -316>	(54,41)	(310,1)	(53,2)	(296,3)	(55,3)	(51,3)	(43,1)	(317,1)	(56,3)	(293,1)	(312,2)	(33,2)	(49,2)	(313,1)	(47,1)	(-1,2)	
L1D -315>	(53,15)	(314,3)	(309,6)	(304,5)	(51,1)	(318,2)	(54,10)	(316,1)	(55,7)	(44,1)	(313,2)	(291,1)	(50,1)	(52,2)	(302,2)	(49,1)	
L1D -314>	(52,9)	(306,9)	(35,3)	(55,2)	(50,3)	(56,2)	(309,6)	(53,5)	(312,3)	(48,1)	(300,3)	(311,2)	(49,3)	(54,3)	(303,2)	(308,1)	
L1D -313>	(309,4)	(316,2)	(53,3)	(318,8)	(317,3)	(306,3)	(55,1)	(302,3)	(308,1)	(295,1)	(300,1)	(314,1)	(48,2)	(52,2)	(44,1)	(56,1)	
L1D -312>	(316,5)	(297,7)	(307,2)	(313,2)	(314,1)	(317,1)	(303,1)	(50,1)	(52,1)	(318,2)	(301,1)	(312,2)	(44,1)	(55,1)	(1,0)	(1,0)	
L1D -311>	(49,1)	(309,4)	(297,3)	(50,2)	(318,2)	(52,1)	(51,1)	(55,1)	(311,1)	(1,0)	(1,0)	(1,0)	(1,0)	(1,0)	(1,0)	(1,0)	
L1D -310>	(315,3)	(54,1)	(48,2)	(320,40)	(318,7)	(312,2)	(303,3)	(299,4)	(49,3)	(297,4)	(309,2)	(316,1)	(1,0)	(1,0)	(1,0)	(1,0)	
L1D -309>	(47,4)	(297,2)	(314,4)	(318,3)	(308,2)	(48,3)	(315,1)	(1,0)	(1,0)	(1,0)	(1,0)	(1,0)	(1,0)	(1,0)	(1,0)	(1,0)	
L1D -308>	(46,1)	(320,12)	(316,2)	(307,1)	(295,2)	(318,3)	(54,1)	(1,0)	(1,0)	(1,0)	(1,0)	(1,0)	(1,0)	(1,0)	(1,0)	(1,0)	
L1D -307>	(315,4)	(46,2)	(306,3)	(316,1)	(308,5)	(305,2)	(296,4)	(52,1)	(293,2)	(318,1)	(303,1)	(45,1)	(1,0)	(1,0)	(1,0)	(1,0)	
L1D -306>	(54,4)	(316,2)	(318,3)	(312,3)	(311,1)	(53,1)	(305,1)	(55,1)	(314,1)	(1,0)	(1,0)	(1,0)	(1,0)	(1,0)	(1,0)	(1,0)	
L1D -305>	(292,5)	(318,4)	(55,2)	(306,1)	(311,1)	(303,1)	(316,1)	(1,0)	(1,0)	(1,0)	(1,0)	(1,0)	(1,0)	(1,0)	(1,0)	(1,0)	
L1D -304>	(53,1)	(318,11)	(317,4)	(51,1)	(306,1)	(287,1)	(307,1)	(1,0)	(1,0)	(1,0)	(1,0)	(1,0)	(1,0)	(1,0)	(1,0)	(1,0)	
L1D -303>	(56,1)	(318,12)	(42,2)	(5,1)	(51,1)	(302,1)	(304,1)	(41,1)	(1,0)	(1,0)	(1,0)	(1,0)	(1,0)	(1,0)	(1,0)	(1,0)	
L1D -302>	(40,6)	(318,4)	(316,7)	(56,3)	(310,1)	(315,1)	(54,1)	(1,0)	(1,0)	(1,0)	(1,0)	(1,0)	(1,0)	(1,0)	(1,0)	(1,0)	
L1D -301>	(39,4)	(40,3)	(318,4)	(42,3)	(314,2)	(315,1)	(51,1)	(317,1)	(54,1)	(1,0)	(1,0)	(1,0)	(1,0)	(1,0)	(1,0)	(1,0)	
L1D -300>	(318,3)	(40,3)	(45,4)	(317,2)	(39,2)	(56,1)	(1,0)	(1,0)	(1,0)	(1,0)	(1,0)	(1,0)	(1,0)	(1,0)	(1,0)	(1,0)	
L1D -299>	(37,4)	(54,1)	(318,2)	(316,1)	(55,1)	(1,0)	(1,0)	(1,0)	(1,0)	(1,0)	(1,0)	(1,0)	(1,0)	(1,0)	(1,0)	(1,0)	
L1D -298>	(56,5)	(45,1)	(318,5)	(44,1)	(37,4)	(299,1)	(1,0)	(1,0)	(1,0)	(1,0)	(1,0)	(1,0)	(1,0)	(1,0)	(1,0)	(1,0)	
L1D -297>	(318,7)	(316,1)	(1,0)	(1,0)	(1,0)	(1,0)	(1,0)	(1,0)	(1,0)	(1,0)	(1,0)	(1,0)	(1,0)	(1,0)	(1,0)	(1,0)	
L1D -296>	(18,1)	(-1,3)	(294,1)	(34,3)	(318,5)	(317,3)	(295,2)	(297,1)	(290,1)	(29,1)	(31,2)	(37,1)	(32,2)	(35,1)	(309,1)	(1,0)	
L1D -295>	(33,10)	(320,1)	(35,3)	(32,2)	(318,10)	(34,2)	(-1,7)	(28,1)	(30,3)	(291,4)	(289,2)	(290,1)	(314,1)	(295,1)	(31,1)	(1,0)	
L1D -294>	(32,81)	(318,2)	(289,3)	(33,7)	(291,5)	(290,1)	(53,1)	(42,7)	(-1,3)	(30,1)	(292,2)	(56,2)	(295,5)	(316,1)	(43,1)	(296,1)	
L1D -293>	(31,7)	(318,10)	(28,1)	(33,6)	(32,1)	(30,5)	(4,2)	(288,4)	(27,1)	(-1,2)	(293,1)	(302,1)	(294,1)	(320,1)	(1,0)	(1,0)	
L1D -292>	(293,5)	(30,11)	(317,1)	(27,1)	(289,1)	(318,3)	(32,2)	(33,1)	(31,1)	(28,1)	(1,0)	(1,0)	(1,0)	(1,0)	(1,0)	(1,0)	
L1D -291>	(263,3)	(-1,1)	(295,35)	(34,22)	(296,6)	(32,2)	(31,1)	(55,1)	(318,6)	(300,1)	(29,2)	(294,1)	(291,2)	(298,1)	(1,0)	(1,0)	
L1D -290>	(292,5)	(293,2)	(-1,1)	(28,1)	(29,2)	(318,2)	(30,2)	(1,0)	(1,0)	(1,0)	(1,0)	(1,0)	(1,0)	(1,0)	(1,0)	(1,0)	
L1D -289>	(263,3)	(27,1)	(1,0)	(1,0)	(1,0)	(1,0)	(1,0)	(1,0)	(1,0)	(1,0)	(1,0)	(1,0)	(1,0)	(1,0)	(1,0)	(1,0)	
L1D -288>	(287,1)	(30,2)	(32,2)	(27,4)	(263,1)	(26,1)	(1,0)	(1,0)	(1,0)	(1,0)	(1,0)	(1,0)	(1,0)	(1,0)	(1,0)	(1,0)	
L1D -287>	(25,3)	(289,2)	(263,2)	(286,1)	(1,0)	(1,0)	(1,0)	(1,0)	(1,0)	(1,0)	(1,0)	(1,0)	(1,0)	(1,0)	(1,0)	(1,0)	
L1D -286>	(2,1)	(263,3)	(24,3)	(1,0)	(1,0)	(1,0)	(1,0)	(1,0)	(1,0)	(1,0)	(1,0)	(1,0)	(1,0)	(1,0)	(1,0)	(1,0)	
L1D -285>	(289,3)	(23,2)	(284,6)	(22,1)	(263,1)	(-32,1)	(1,0)	(1,0)	(1,0)	(1,0)	(1,0)	(1,0)	(1,0)	(1,0)	(1,0)	(1,0)	
L1D -284>	(263,6)	(22,4)	(1,0)	(1,0)	(1,0)	(1,0)	(1,0)	(1,0)	(1,0)	(1,0)	(1,0)	(1,0)	(1,0)	(1,0)	(1,0)	(1,0)	
L1D -283>	(263,12)	(21,7)	(282,4)	(265,1)	(291,1)	(1,0)	(1,0)	(1,0)	(1,0)	(1,0)	(1,0)	(1,0)	(1,0)	(1,0)	(1,0)	(1,0)	
L1D -282>	(20,7)	(263,4)	(19,2)	(-36,2)	(1,0)	(1,0)	(1,0)	(1,0)	(1,0)	(1,0)	(1,0)	(1,0)	(1,0)	(1,0)	(1,0)	(1,0)	
L1D -281>	(19,10)	(263,19)	(280,2)	(1,0)	(1,0)	(1,0)	(1,0)	(1,0)	(1,0)	(1,0)	(1,0)	(1,0)	(1,0)	(1,0)	(1,0)	(1,0)	
L1D -280>	(18,5)	(279,1)	(263,4)	(1,1)	(278,1)	(1,0)	(1,0)	(1,0)	(1,0)	(1,0)	(1,0)	(1,0)	(1,0)	(1,0)	(1,0)	(1,0)	
L1D -279>	(263,8)	(-38,2)	(17,9)	(16,3)	(274,2)	(264,3)	(278,5)	(-36,1)	(18,1)	(-35,1)	(-37,1)	(1,0)	(1,0)	(1,0)	(1,0)	(1,0)	
L1D -278>	(16,96)	(15,6)	(256,4)	(1,1)	(264,12)	(240,13)	(-18,3)	(-17,3)	(263,5)	(17,1)	(-16,1)	(-38,1)	(18,1)	(-39,1)	(1,0)	(1,0)	
L1D -277>	(15,4)	(14,2)	(-39,2)	(12,1)	(263,2)	(17,1)	(1,1)	(264,1)	(1,0)	(1,0)	(1,0)	(1,0)	(1,0)	(1,0)	(1,0)	(1,0)	
L1D -276>	(14,14)	(263,15)	(251,1)	(264,7)	(12,2)	(273,1)	(-40,1)	(290,2)	(274,1)	(15,1)	(-35,1)	(11,1)	(275,1)	(1,0)	(1,0)	(1,0)	
L1D -275>	(263,7)	(13,11)	(1,3)	(11,4)	(10,3)	(12,1)	(274,1)	(273,2)	(1,0)	(1,0)	(1,0)	(1,0)	(1,0)	(1,0)	(1,0)	(1,0)	
L1D -274>	(275,3)	(1,5)	(12,12)	(264,2)	(263,10)	(2,4)	(271,2)	(273,5)	(9,1)	(11,4)	(10,1)	(262,1)	(1,0)	(1,0)	(1,0)	(1,0)	
L1D -273>	(274,2)	(11,6)	(263,13)	(1,9)	(-40,1)	(10,3)	(9,2)	(283,1)	(272,1)	(275,1)	(269,1)	(12,1)	(271,1)	(1,0)	(1,0)	(1,0)	
L1D -272>	(273,3)	(10,53)	(8,5)	(-44,2)	(263,10)	(1,5)	(271,4)	(7,5)	(274,1)	(3,1)	(275,1)	(2,1)	(1,0)	(1,0)	(1,0)	(1,0)	
L1D -271>	(272,9)	(1,7)	(9,10)	(273,2)	(8,4)	(263,17)	(267,4)	(10,3)	(277,1)	(-42,1)	(7,1)	(279,2)	(-44,1)	(269,2)	(268,2)	(275,1)	
L1D -270>	(271,3)	(1,4)	(272,6)	(8,6)	(262,3)	(9,2)	(263,5)	(265,1)	(273,2)	(7,4)	(2,2)	(5,1)	(-1,1)	(269,1)	(267,1)	(277,1)	
L1D -269>	(270,14)	(1,5)	(271,3)	(7,9)	(264,6)	(266,5)	(6,8)	(265,6)	(272,3)	(5,3)	(278,3)	(263,8)	(9,2)	(2,2)	(275,1)	(262,2)	
L1D -268>	(1,11)	(269,5)	(270,11)	(263,3)	(4,47)	(267,7)	(2,10)	(271,3)	(3,10)	(5,5)	(-28,2)	(8,2)	(-50,3)	(6,5)	(272,4)	(265,1)	
L1D -267>	(268,10)	(269,7)	(1,3)	(5,4)	(264,6)	(265,6)	(272,3)	(2,5)	(3,40)	(-50,2)	(248,7)	(266,2)	(261,2)	(263,5)	(273,1)	(-49,3)	
L1D -266>	(267,15)	(268,3)	(1,5)	(2,93)	(263,10)	(-51,1)	(258,3)	(-52,7)	(4,6)	(261,12)	(-48,2)	(262,5)	(251,3)	(264,8)	(-46,2)	(270,2)	
L1D -265>	(1,6)	(266,9)	(3,17)	(263,18)	(267,5)	(269,13)	(4,1)	(-52,10)	(258,3)	(-49,14)	(270,35)	(260,8)	(2,34)	(261,18)	(268,3)	(257,6)	
L1D -264>	(265,12)	(263,10)	(260,30)	(262,31)	(268,23)	(250,10)	(255,10)	(253,1)	(267,20)	(249,6)	(261,55)	(246,16)	(245,28)	(-53,4)	(259,35)	(251,9)	
L1D -263>	(264,12)	(254,8)	(260,29)	(261,55)	(259,16)	(-53,4)	(257,6)	(-54,1)	(-33,11)	(-32,5)	(9,2)	(-11,4)	(251,6)	(-1,48)	(-2,12)	(262,9)	
L1D -262>	(263,34)	(-1,21)	(-56,19)	(261,35)	(250,9)	(268,10)	(7,4)	(253,5)	(275,6)	(272,6)	(273,7)	(260,1)	(265,7)	(2,68)	(276,7)	(-55,2)	
L1D -261>	(262,12)	(264,18)	(282,3)	(263,54)	(260,8)	(-1,17)	(-2,6)	(7,5)	(1,3)	(-56,5)	(261,4)	(251,1)	(-30,7)	(269,12)	(-3,49)	(253,10)	
L1D -260>	(261,13)	(-1,25)	(11,5)	(258,1)	(257,3)	(265,3)	(260,4)	(9,2)	(-4,19)	(-46,4)	(270,1)	(-55,1)	(-2,6)	(-52,2)	(263,37)	(264,14)	
L1D -259>	(261,8)	(249,4)	(263,34)	(-54,4)	(260,7)	(-1,5)	(-9,4)	(274,1)	(5,1)	(248,11)	(-56,2)	(262,12)	(19,3)	(264,4)	(243,2)	(277,1)	
L1D -258>	(261,10)	(-4,6)	(247,2)	(263,9)	(260,1)	(259,3)	(-53,3)	(262,7)	(-34,4)	(-3,5)	(-2,1)	(-1,7)	(244,1)	(252,2)	(267,2)	(255,2)	
L1D -257>	(245,2)	(261,33)	(264,1)	(-5,7)	(-4,9)	(262,4)	(-1,1)	(-2,1)	(-56,1)	(258,2)	(242,1)	(259,1)	(-3,1)	(1,1)	(271,1)	(260,1)	
L1D -256>	(261,4)	(259,1)	(1,1)	(264,2)	(257,1)	(243,2)	(260,10)	(249,3)	(272,3)	(-3,3)	(245,2)	(-46,3)	(270,3)	(252,1)	(-1,8)	(-2,3)	
L1D -255>	(261,11)	(257,10)	(-7,11)	(-1,2)	(272,1)	(256,6)	(-6,2)	(241,2)	(-54,1)	(260,6)	(264,1)	(273,5)	(-3,2)	(-2,3)	(-46,1)	(-5,1)	
L1D -254>	(-8,5)	(255,3)	(257,4)	(-44,7)	(264,2)	(-3,5)	(258,2)	(261,12)	(-45,3)	(-43,1)	(-4,1)	(262,1)	(-7,5)	(275,2)	(259,1)	(-54,1)	
L1D -253>	(-9,5)	(259,7)	(-8,9)	(-56,3)	(262,5)	(261,11)	(-54,1)	(-7,2)	(-4,4)	(273,1)	(258,1)	(257,1)	(-51,1)	(260,1)	(254,2)	(-5,1)	
L1D -252>	(-10,9)	(-54,1)	(-15,4)	(274,3)	(-42,5)	(261,9)	(-1,3)	(256,3)	(260,5)	(-2,3)	(257,4)	(-9,5)	(254,1)	(276,2)	(253,2)	(-43,3)	
L1D -251>	(261,10)	(-10,4)	(-9,3)	(257,9)	(-11,17)	(254,3)	(-1,8)	(15,1)	(-4,1)	(277,2)	(-41,1)	(259,1)	(-43,1)	(260,1)	(252,1)	(1,0)	
L1D -250>	(-1,4)	(274,4)	(-12,10)	(261,4)	(-10,1)	(-11,4)	(254,1)	(-3,1)	(251,1)	(262,1)	(259,1)	(1,0)	(1,0)	(1,0)	(1,0)	(1,0)	
L1D -249>	(-13,9)	(261,10)	(-12,6)	(250,2)	(-9,3)	(276,1)	(259,2)	(263,2)	(-10,1)	(2,1)	(260,1)	(-2,1)	(-3,1)	(1,0)	(1,0)	(1,0)	
L1D -248>	(275,1)	(-1,11)	(261,4)	(249,1)	(-14,4)	(259,1)	(260,1)	(-13,1)	(1,0)	(1,0)	(1,0)	(1,0)	(1,0)	(1,0)	(1,0)	(1,0)	
L1D -247>	(-15,8)	(-53,1)	(-1,6)	(-14,1)	(261,3)	(259,1)	(-12,1)	(-41,1)	(260,3)	(-2,1)	(1,0)	(1,0)	(1,0)	(1,0)	(1,0)	(1,0)	
L1D -246>	(-16,4)	(-17,1)	(-15,3)	(-14,2)	(-13,4)	(261,11)	(-56,1)	(1,0)	(1,0)	(1,0)	(1,0)	(1,0)	(1,0)	(1,0)	(1,0)	(1,0)	
L1D -245>	(1,1)	(-2,1)	(260,3)	(-17,7)	(259,4)	(-16,1)	(261,3)	(1,0)	(1,0)	(1,0)	(1,0)	(1,0)	(1,0)	(1,0)	(1,0)	(1,0)	
L1D -244>	(15,2)	(261,9)	(-9,1)	(248,2)	(260,1)	(-18,1)	(-20,2)	(-54,2)	(-56,1)	(-15,2)	(-17,1)	(-1,1)	(1,0)	(1,0)	(1,0)	(1,0)	
L1D -243>	(-19,1)	(261,11)	(-18,2)	(-1,2)	(-2,2)	(-17,2)	(245,1)	(260,1)	(1,0)	(1,0)	(1,0)	(1,0)	(1,0)	(1,0)	(1,0)	(1,0)	
L1D -242>	(-20,3)	(-1,6)	(-17,3)	(260,1)	(1,0)	(1,0)	(1,0)	(1,0)	(1,0)	(1,0)	(1,0)	(1,0)	(1,0)	(1,0)	(1,0)	(1,0)	
L1D -241>	(-20,7)	(-19,3)	(-1,3)	(15,1)	(1,2)	(261,1)	(-2,1)	(1,0)	(1,0)	(1,0)	(1,0)	(1,0)	(1,0)	(1,0)	(1,0)	(1,0)	
L1D -240>	(-1,5)	(261,5)	(-22,1)	(-20,3)	(243,3)	(-19,1)	(1,0)	(1,0)	(1,0)	(1,0)	(1,0)	(1,0)	(1,0)	(1,0)	(1,0)	(1,0)	
L1D -239>	(-23,3)	(-56,1)	(1,1)	(-22,1)	(261,1)	(1,0)	(1,0)	(1,0)	(1,0)	(1,0)	(1,0)	(1,0)	(1,0)	(1,0)	(1,0)	(1,0)	
L1D -238>	(-23,4)	(-21,2)	(1,1)	(1,0)	(1,0)	(1,0)	(1,0)	(1,0)	(1,0)	(1,0)	(1,0)	(1,0)	(1,0)	(1,0)	(1,0)	(1,0)	
L1D -237>	(260,1)	(1,0)	(1,0)	(1,0)	(1,0)	(1,0)	(1,0)	(1,0)	(1,0)	(1,0)	(1,0)	(1,0)	(1,0)	(1,0)	(1,0)	(1,0)	
L1D -236>	(-22,1)	(-26,4)	(239,1)	(245,2)	(-24,2)	(-25,1)	(1,0)	(1,0)	(1,0)	(1,0)	(1,0)	(1,0)	(1,0)	(1,0)	(1,0)	(1,0)	
L1D -235>	(1,0)	(1,0)	(1,0)	(1,0)	(1,0)	(1,0)	(1,0)	(1,0)	(1,0)	(1,0)	(1,0)	(1,0)	(1,0)	(1,0)	(1,0)	(1,0)	
L1D -234>	(243,2)	(-57,1)	(1,0)	(1,0)	(1,0)	(1,0)	(1,0)	(1,0)	(1,0)	(1,0)	(1,0)	(1,0)	(1,0)	(1,0)	(1,0)	(1,0)	
L1D -233>	(262,2)	(1,0)	(1,0)	(1,0)	(1,0)	(1,0)	(1,0)	(1,0)	(1,0)	(1,0)	(1,0)	(1,0)	(1,0)	(1,0)	(1,0)	(1,0)	
L1D -232>	(1,0)	(1,0)	(1,0)	(1,0)	(1,0)	(1,0)	(1,0)	(1,0)	(1,0)	(1,0)	(1,0)	(1,0)	(1,0)	(1,0)	(1,0)	(1,0)	
L1D -231>	(1,0)	(1,0)	(1,0)	(1,0)	(1,0)	(1,0)	(1,0)	(1,0)	(1,0)	(1,0)	(1,0)	(1,0)	(1,0)	(1,0)	(1,0)	(1,0)	
L1D -230>	(1,0)	(1,0)	(1,0)	(1,0)	(1,0)	(1,0)	(1,0)	(1,0)	(1,0)	(1,0)	(1,0)	(1,0)	(1,0)	(1,0)	(1,0)	(1,0)	
L1D -229>	(1,0)	(1,0)	(1,0)	(1,0)	(1,0)	(1,0)	(1,0)	(1,0)	(1,0)	(1,0)	(1,0)	(1,0)	(1,0)	(1,0)	(1,0)	(1,0)	
L1D -228>	(-15,7)	(1,0)	(1,0)	(1,0)	(1,0)	(1,0)	(1,0)	(1,0)	(1,0)	(1,0)	(1,0)	(1,0)	(1,0)	(1,0)	(1,0)	(1,0)	
L1D -227>	(261,2)	(1,0)	(1,0)	(1,0)	(1,0)	(1,0)	(1,0)	(1,0)	(1,0)	(1,0)	(1,0)	(1,0)	(1,0)	(1,0)	(1,0)	(1,0)	
L1D -226>	(234,2)	(-15,5)	(1,0)	(1,0)	(1,0)	(1,0)	(1,0)	(1,0)	(1,0)	(1,0)	(1,0)	(1,0)	(1,0)	(1,0)	(1,0)	(1,0)	
L1D -225>	(-2,1)	(1,0)	(1,0)	(1,0)	(1,0)	(1,0)	(1,0)	(1,0)	(1,0)	(1,0)	(1,0)	(1,0)	(1,0)	(1,0)	(1,0)	(1,0)	
L1D -224>	(1,0)	(1,0)	(1,0)	(1,0)	(1,0)	(1,0)	(1,0)	(1,0)	(1,0)	(1,0)	(1,0)	(1,0)	(1,0)	(1,0)	(1,0)	(1,0)	
L1D -223>	(219,1)	(1,0)	(1,0)	(1,0)	(1,0)	(1,0)	(1,0)	(1,0)	(1,0)	(1,0)	(1,0)	(1,0)	(1,0)	(1,0)	(1,0)	(1,0)	
L1D -222>	(128,50)	(215,10)	(220,25)	(221,6)	(122,1)	(130,14)	(214,4)	(127,34)	(-1,5)	(212,8)	(217,3)	(129,35)	(125,9)	(219,9)	(126,8)	(218,2)	
L1D -221>	(129,23)	(127,10)	(-1,6)	(220,3)	(128,7)	(126,5)	(122,2)	(218,4)	(213,2)	(112,1)	(210,3)	(212,1)	(125,3)	(219,4)	(120,2)	(123,2)	
L1D -220>	(128,41)	(126,30)	(221,8)	(1,41)	(208,1)	(119,1)	(206,6)	(207,3)	(209,4)	(130,10)	(129,22)	(125,1)	(124,3)	(216,5)	(205,3)	(123,8)	
L1D -219>	(53,3)	(125,27)	(217,5)	(128,3)	(127,12)	(126,5)	(219,3)	(51,2)	(206,7)	(124,9)	(222,3)	(213,3)	(114,1)	(106,1)	(123,3)	(129,2)	
L1D -218>	(124,9)	(126,6)	(209,7)	(127,13)	(129,6)	(123,3)	(207,1)	(112,1)	(219,1)	(222,1)	(-1,2)	(121,2)	(211,3)	(217,4)	(216,1)	(218,1)	
L1D -217>	(125,4)	(123,12)	(126,2)	(213,2)	(221,1)	(205,4)	(206,2)	(216,3)	(210,2)	(121,4)	(222,1)	(127,7)	(122,1)	(204,2)	(117,1)	(207,1)	
L1D -216>	(124,2)	(118,1)	(211,1)	(125,2)	(220,2)	(208,1)	(222,8)	(205,4)	(215,2)	(126,4)	(114,1)	(115,2)	(218,2)	(206,1)	(121,2)	(129,1)	
L1D -215>	(124,2)	(128,9)	(205,1)	(126,2)	(129,3)	(220,2)	(222,3)	(217,6)	(214,1)	(125,1)	(206,1)	(212,1)	(209,1)	(1,0)	(1,0)	(1,0)	
L1D -214>	(207,3)	(220,1)	(221,27)	(113,2)	(213,2)	(216,3)	(2,19)	(217,4)	(222,10)	(123,2)	(197,2)	(126,2)	(122,4)	(4,1)	(208,1)	(218,1)	
L1D -213>	(208,1)	(222,6)	(1,3)	(126,2)	(124,1)	(201,8)	(212,3)	(219,3)	(211,2)	(220,3)	(122,3)	(125,1)	(1,0)	(1,0)	(1,0)	(1,0)	
L1D -212>	(118,23)	(4,6)	(117,39)	(209,4)	(210,2)	(114,1)	(222,10)	(205,1)	(211,5)	(2,1)	(208,3)	(127,1)	(115,3)	(218,1)	(5,3)	(-1,5)	
L1D -211>	(117,17)	(116,30)	(-1,5)	(114,3)	(222,6)	(207,2)	(119,2)	(208,10)	(200,2)	(209,1)	(126,3)	(121,4)	(118,1)	(220,4)	(125,1)	(219,1)	
L1D -210>	(116,19)	(125,1)	(52,30)	(118,5)	(117,2)	(123,2)	(126,2)	(115,6)	(222,8)	(208,2)	(207,1)	(211,8)	(209,2)	(220,2)	(212,1)	(205,2)	
L1D -209>	(117,3)	(115,46)	(222,5)	(214,2)	(111,2)	(128,1)	(114,11)	(113,12)	(206,4)	(196,1)	(129,1)	(112,4)	(-1,4)	(203,2)	(205,2)	(207,3)	
L1D -208>	(117,1)	(114,10)	(116,4)	(52,102)	(41,1)	(222,5)	(112,3)	(109,2)	(-1,2)	(209,9)	(206,1)	(204,1)	(115,2)	(219,4)	(210,2)	(113,1)	
L1D -207>	(212,2)	(203,2)	(113,10)	(206,3)	(112,5)	(128,1)	(115,5)	(209,4)	(222,4)	(116,1)	(114,2)	(109,2)	(111,1)	(214,1)	(1,0)	(1,0)	
L1D -206>	(112,50)	(116,1)	(202,11)	(110,43)	(204,7)	(111,40)	(-1,12)	(113,3)	(210,9)	(109,8)	(203,9)	(108,11)	(207,5)	(52,6)	(115,2)	(205,2)	
L1D -205>	(111,22)	(113,7)	(125,1)	(222,4)	(202,10)	(109,12)	(110,1)	(126,1)	(114,1)	(205,5)	(-1,3)	(117,1)	(108,1)	(1,0)	(1,0)	(1,0)	
L1D -204>	(112,2)	(110,97)	(108,2)	(-1,9)	(199,40)	(221,1)	(109,38)	(202,42)	(206,1)	(203,19)	(114,3)	(222,1)	(111,3)	(119,1)	(128,1)	(118,1)	
L1D -203>	(109,12)	(202,1)	(108,7)	(199,46)	(110,2)	(111,1)	(129,2)	(220,1)	(222,2)	(208,1)	(1,0)	(1,0)	(1,0)	(1,0)	(1,0)	(1,0)	
L1D -202>	(108,74)	(204,4)	(111,9)	(199,3)	(222,1)	(1,0)	(1,0)	(1,0)	(1,0)	(1,0)	(1,0)	(1,0)	(1,0)	(1,0)	(1,0)	(1,0)	
L1D -201>	(107,5)	(109,1)	(130,4)	(199,119)	(115,1)	(222,6)	(204,1)	(111,1)	(1,0)	(1,0)	(1,0)	(1,0)	(1,0)	(1,0)	(1,0)	(1,0)	
L1D -200>	(199,69)	(-1,2)	(109,1)	(208,0)	(105,3)	(2,0)	(107,1)	(198,1)	(197,0)	(1,0)	(1,0)	(1,0)	(1,0)	(1,0)	(1,0)	(1,0)	
L1D -199>	(107,2)	(199,62)	(108,2)	(195,3)	(222,1)	(1,0)	(1,0)	(1,0)	(1,0)	(1,0)	(1,0)	(1,0)	(1,0)	(1,0)	(1,0)	(1,0)	
L1D -198>	(1,1)	(9,12)	(106,2)	(195,9)	(107,10)	(222,3)	(200,1)	(1,0)	(1,0)	(1,0)	(1,0)	(1,0)	(1,0)	(1,0)	(1,0)	(1,0)	
L1D -197>	(52,2)	(105,1)	(1,42)	(206,2)	(222,3)	(-1,1)	(1,0)	(1,0)	(1,0)	(1,0)	(1,0)	(1,0)	(1,0)	(1,0)	(1,0)	(1,0)	
L1D -196>	(194,1)	(197,3)	(222,14)	(103,7)	(107,1)	(-1,1)	(198,1)	(1,0)	(1,0)	(1,0)	(1,0)	(1,0)	(1,0)	(1,0)	(1,0)	(1,0)	
L1D -195>	(103,13)	(197,1)	(200,1)	(222,1)	(1,0)	(1,0)	(1,0)	(1,0)	(1,0)	(1,0)	(1,0)	(1,0)	(1,0)	(1,0)	(1,0)	(1,0)	
L1D -194>	(100,98)	(36,3)	(-28,0)	(-15,1)	(-9,0)	(-7,0)	(-12,0)	(22,0)	(-1,0)	(19,0)	(102,2)	(197,2)	(20,5)	(38,3)	(44,1)	(-18,0)	
L1D -193>	(198,1)	(1,0)	(1,0)	(1,0)	(1,0)	(1,0)	(1,0)	(1,0)	(1,0)	(1,0)	(1,0)	(1,0)	(1,0)	(1,0)	(1,0)	(1,0)	
L1D -192>	(195,1)	(1,0)	(1,0)	(1,0)	(1,0)	(1,0)	(1,0)	(1,0)	(1,0)	(1,0)	(1,0)	(1,0)	(1,0)	(1,0)	(1,0)	(1,0)	
L1D -191>	(52,8)	(200,3)	(1,0)	(1,0)	(1,0)	(1,0)	(1,0)	(1,0)	(1,0)	(1,0)	(1,0)	(1,0)	(1,0)	(1,0)	(1,0)	(1,0)	
L1D -190>	(197,6)	(34,14)	(1,0)	(1,0)	(1,0)	(1,0)	(1,0)	(1,0)	(1,0)	(1,0)	(1,0)	(1,0)	(1,0)	(1,0)	(1,0)	(1,0)	
L1D -189>	(133,2)	(50,2)	(196,2)	(1,0)	(1,0)	(1,0)	(1,0)	(1,0)	(1,0)	(1,0)	(1,0)	(1,0)	(1,0)	(1,0)	(1,0)	(1,0)	
L1D -188>	(9,6)	(3,2)	(1,0)	(1,0)	(1,0)	(1,0)	(1,0)	(1,0)	(1,0)	(1,0)	(1,0)	(1,0)	(1,0)	(1,0)	(1,0)	(1,0)	
L1D -187>	(-35,1)	(1,0)	(1,0)	(1,0)	(1,0)	(1,0)	(1,0)	(1,0)	(1,0)	(1,0)	(1,0)	(1,0)	(1,0)	(1,0)	(1,0)	(1,0)	
L1D -186>	(93,4)	(94,81)	(16,1)	(-14,1)	(1,0)	(1,0)	(1,0)	(1,0)	(1,0)	(1,0)	(1,0)	(1,0)	(1,0)	(1,0)	(1,0)	(1,0)	
L1D -185>	(189,1)	(1,0)	(1,0)	(1,0)	(1,0)	(1,0)	(1,0)	(1,0)	(1,0)	(1,0)	(1,0)	(1,0)	(1,0)	(1,0)	(1,0)	(1,0)	
L1D -184>	(28,14)	(1,0)	(1,0)	(1,0)	(1,0)	(1,0)	(1,0)	(1,0)	(1,0)	(1,0)	(1,0)	(1,0)	(1,0)	(1,0)	(1,0)	(1,0)	
L1D -183>	(1,0)	(1,0)	(1,0)	(1,0)	(1,0)	(1,0)	(1,0)	(1,0)	(1,0)	(1,0)	(1,0)	(1,0)	(1,0)	(1,0)	(1,0)	(1,0)	
L1D -182>	(1,0)	(1,0)	(1,0)	(1,0)	(1,0)	(1,0)	(1,0)	(1,0)	(1,0)	(1,0)	(1,0)	(1,0)	(1,0)	(1,0)	(1,0)	(1,0)	
L1D -181>	(38,1)	(180,53)	(1,0)	(1,0)	(1,0)	(1,0)	(1,0)	(1,0)	(1,0)	(1,0)	(1,0)	(1,0)	(1,0)	(1,0)	(1,0)	(1,0)	
L1D -180>	(180,26)	(1,0)	(1,0)	(1,0)	(1,0)	(1,0)	(1,0)	(1,0)	(1,0)	(1,0)	(1,0)	(1,0)	(1,0)	(1,0)	(1,0)	(1,0)	
L1D -179>	(180,4)	(1,0)	(1,0)	(1,0)	(1,0)	(1,0)	(1,0)	(1,0)	(1,0)	(1,0)	(1,0)	(1,0)	(1,0)	(1,0)	(1,0)	(1,0)	
L1D -178>	(98,14)	(88,1)	(120,12)	(1,0)	(1,0)	(1,0)	(1,0)	(1,0)	(1,0)	(1,0)	(1,0)	(1,0)	(1,0)	(1,0)	(1,0)	(1,0)	
L1D -177>	(184,1)	(1,0)	(1,0)	(1,0)	(1,0)	(1,0)	(1,0)	(1,0)	(1,0)	(1,0)	(1,0)	(1,0)	(1,0)	(1,0)	(1,0)	(1,0)	
L1D -176>	(8,4)	(6,1)	(1,0)	(1,0)	(1,0)	(1,0)	(1,0)	(1,0)	(1,0)	(1,0)	(1,0)	(1,0)	(1,0)	(1,0)	(1,0)	(1,0)	
L1D -175>	(2,1)	(81,1)	(-20,1)	(1,0)	(1,0)	(1,0)	(1,0)	(1,0)	(1,0)	(1,0)	(1,0)	(1,0)	(1,0)	(1,0)	(1,0)	(1,0)	
L1D -174>	(-1,1)	(8,6)	(6,2)	(80,1)	(1,0)	(1,0)	(1,0)	(1,0)	(1,0)	(1,0)	(1,0)	(1,0)	(1,0)	(1,0)	(1,0)	(1,0)	
L1D -173>	(1,2)	(4,1)	(81,1)	(2,2)	(-20,1)	(79,1)	(6,1)	(176,1)	(1,0)	(1,0)	(1,0)	(1,0)	(1,0)	(1,0)	(1,0)	(1,0)	
L1D -172>	(6,4)	(1,1)	(2,1)	(1,0)	(1,0)	(1,0)	(1,0)	(1,0)	(1,0)	(1,0)	(1,0)	(1,0)	(1,0)	(1,0)	(1,0)	(1,0)	
L1D -171>	(1,3)	(2,11)	(79,1)	(81,1)	(1,0)	(1,0)	(1,0)	(1,0)	(1,0)	(1,0)	(1,0)	(1,0)	(1,0)	(1,0)	(1,0)	(1,0)	
L1D -170>	(1,5)	(1,0)	(1,0)	(1,0)	(1,0)	(1,0)	(1,0)	(1,0)	(1,0)	(1,0)	(1,0)	(1,0)	(1,0)	(1,0)	(1,0)	(1,0)	
L1D -169>	(1,49)	(1,0)	(1,0)	(1,0)	(1,0)	(1,0)	(1,0)	(1,0)	(1,0)	(1,0)	(1,0)	(1,0)	(1,0)	(1,0)	(1,0)	(1,0)	
L1D -168>	(2,9)	(1,0)	(1,0)	(1,0)	(1,0)	(1,0)	(1,0)	(1,0)	(1,0)	(1,0)	(1,0)	(1,0)	(1,0)	(1,0)	(1,0)	(1,0)	
L1D -167>	(168,2)	(-41,1)	(1,0)	(1,0)	(1,0)	(1,0)	(1,0)	(1,0)	(1,0)	(1,0)	(1,0)	(1,0)	(1,0)	(1,0)	(1,0)	(1,0)	
L1D -166>	(94,5)	(1,6)	(2,1)	(167,1)	(1,0)	(1,0)	(1,0)	(1,0)	(1,0)	(1,0)	(1,0)	(1,0)	(1,0)	(1,0)	(1,0)	(1,0)	
L1D -165>	(-40,2)	(1,1)	(1,0)	(1,0)	(1,0)	(1,0)	(1,0)	(1,0)	(1,0)	(1,0)	(1,0)	(1,0)	(1,0)	(1,0)	(1,0)	(1,0)	
L1D -164>	(-2,0)	(1,2)	(165,0)	(2,73)	(1,0)	(1,0)	(1,0)	(1,0)	(1,0)	(1,0)	(1,0)	(1,0)	(1,0)	(1,0)	(1,0)	(1,0)	
L1D -163>	(1,2)	(1,0)	(1,0)	(1,0)	(1,0)	(1,0)	(1,0)	(1,0)	(1,0)	(1,0)	(1,0)	(1,0)	(1,0)	(1,0)	(1,0)	(1,0)	
L1D -162>	(163,3)	(172,4)	(1,14)	(26,1)	(1,0)	(1,0)	(1,0)	(1,0)	(1,0)	(1,0)	(1,0)	(1,0)	(1,0)	(1,0)	(1,0)	(1,0)	
L1D -161>	(172,1)	(1,1)	(1,0)	(1,0)	(1,0)	(1,0)	(1,0)	(1,0)	(1,0)	(1,0)	(1,0)	(1,0)	(1,0)	(1,0)	(1,0)	(1,0)	
L1D -160>	(161,1)	(1,0)	(1,0)	(1,0)	(1,0)	(1,0)	(1,0)	(1,0)	(1,0)	(1,0)	(1,0)	(1,0)	(1,0)	(1,0)	(1,0)	(1,0)	
L1D -159>	(160,3)	(172,54)	(27,1)	(1,0)	(1,0)	(1,0)	(1,0)	(1,0)	(1,0)	(1,0)	(1,0)	(1,0)	(1,0)	(1,0)	(1,0)	(1,0)	
L1D -158>	(-10,1)	(2,1)	(26,13)	(8,7)	(1,0)	(1,0)	(1,0)	(1,0)	(1,0)	(1,0)	(1,0)	(1,0)	(1,0)	(1,0)	(1,0)	(1,0)	
L1D -157>	(172,13)	(1,0)	(1,0)	(1,0)	(1,0)	(1,0)	(1,0)	(1,0)	(1,0)	(1,0)	(1,0)	(1,0)	(1,0)	(1,0)	(1,0)	(1,0)	
L1D -156>	(-10,15)	(157,1)	(1,0)	(1,0)	(1,0)	(1,0)	(1,0)	(1,0)	(1,0)	(1,0)	(1,0)	(1,0)	(1,0)	(1,0)	(1,0)	(1,0)	
L1D -155>	(156,14)	(164,1)	(1,0)	(1,0)	(1,0)	(1,0)	(1,0)	(1,0)	(1,0)	(1,0)	(1,0)	(1,0)	(1,0)	(1,0)	(1,0)	(1,0)	
L1D -154>	(-10,4)	(1,0)	(1,0)	(1,0)	(1,0)	(1,0)	(1,0)	(1,0)	(1,0)	(1,0)	(1,0)	(1,0)	(1,0)	(1,0)	(1,0)	(1,0)	
L1D -153>	(154,2)	(162,1)	(1,0)	(1,0)	(1,0)	(1,0)	(1,0)	(1,0)	(1,0)	(1,0)	(1,0)	(1,0)	(1,0)	(1,0)	(1,0)	(1,0)	
L1D -152>	(155,1)	(1,0)	(1,0)	(1,0)	(1,0)	(1,0)	(1,0)	(1,0)	(1,0)	(1,0)	(1,0)	(1,0)	(1,0)	(1,0)	(1,0)	(1,0)	
L1D -151>	(1,1)	(1,0)	(1,0)	(1,0)	(1,0)	(1,0)	(1,0)	(1,0)	(1,0)	(1,0)	(1,0)	(1,0)	(1,0)	(1,0)	(1,0)	(1,0)	
L1D -150>	(-44,2)	(1,0)	(1,0)	(1,0)	(1,0)	(1,0)	(1,0)	(1,0)	(1,0)	(1,0)	(1,0)	(1,0)	(1,0)	(1,0)	(1,0)	(1,0)	
L1D -149>	(1,0)	(1,0)	(1,0)	(1,0)	(1,0)	(1,0)	(1,0)	(1,0)	(1,0)	(1,0)	(1,0)	(1,0)	(1,0)	(1,0)	(1,0)	(1,0)	
L1D -148>	(1,1)	(149,1)	(1,0)	(1,0)	(1,0)	(1,0)	(1,0)	(1,0)	(1,0)	(1,0)	(1,0)	(1,0)	(1,0)	(1,0)	(1,0)	(1,0)	
L1D -147>	(1,1)	(1,0)	(1,0)	(1,0)	(1,0)	(1,0)	(1,0)	(1,0)	(1,0)	(1,0)	(1,0)	(1,0)	(1,0)	(1,0)	(1,0)	(1,0)	
L1D -146>	(87,1)	(90,19)	(40,1)	(89,31)	(83,3)	(142,4)	(-1,3)	(88,6)	(86,1)	(145,7)	(144,8)	(143,5)	(141,3)	(84,4)	(85,1)	(137,1)	
L1D -145>	(89,50)	(1,26)	(144,5)	(88,12)	(87,5)	(141,1)	(90,1)	(-1,1)	(140,1)	(1,0)	(1,0)	(1,0)	(1,0)	(1,0)	(1,0)	(1,0)	
L1D -144>	(88,25)	(86,3)	(1,2)	(143,1)	(90,3)	(142,2)	(134,2)	(141,3)	(139,2)	(87,1)	(1,0)	(1,0)	(1,0)	(1,0)	(1,0)	(1,0)	
L1D -143>	(87,15)	(134,3)	(81,5)	(89,2)	(86,3)	(141,1)	(90,2)	(88,2)	(142,1)	(137,2)	(1,0)	(1,0)	(1,0)	(1,0)	(1,0)	(1,0)	
L1D -142>	(86,7)	(-2,1)	(137,4)	(89,5)	(74,1)	(141,1)	(139,1)	(131,1)	(145,1)	(95,1)	(85,1)	(1,0)	(1,0)	(1,0)	(1,0)	(1,0)	
L1D -141>	(85,3)	(1,2)	(142,1)	(137,2)	(89,3)	(84,1)	(82,7)	(144,1)	(79,2)	(130,1)	(78,1)	(124,1)	(136,1)	(1,0)	(1,0)	(1,0)	
L1D -140>	(84,3)	(131,3)	(98,25)	(138,14)	(-1,2)	(2,4)	(130,12)	(93,3)	(95,5)	(96,9)	(97,26)	(137,10)	(134,3)	(139,14)	(85,2)	(125,1)	
L1D -139>	(97,32)	(137,4)	(94,4)	(98,3)	(96,14)	(172,13)	(92,4)	(95,3)	(-1,8)	(90,5)	(138,5)	(130,2)	(134,1)	(135,3)	(84,2)	(136,8)	
L1D -138>	(96,47)	(97,5)	(1,16)	(91,1)	(127,3)	(98,7)	(125,2)	(137,4)	(95,6)	(92,3)	(136,3)	(133,4)	(123,3)	(94,4)	(142,1)	(126,1)	
L1D -137>	(136,5)	(1,6)	(95,22)	(135,12)	(81,2)	(2,2)	(94,6)	(133,1)	(82,7)	(97,6)	(92,8)	(96,10)	(93,1)	(124,5)	(98,5)	(143,3)	
L1D -136>	(1,76)	(121,0)	(92,0)	(134,0)	(172,0)	(89,2)	(146,1)	(131,0)	(98,0)	(127,0)	(93,0)	(125,1)	(120,0)	(124,1)	(94,0)	(122,0)	
L1D -135>	(1,109)	(136,99)	(122,1)	(138,2)	(131,1)	(134,1)	(133,0)	(115,0)	(172,9)	(117,0)	(79,2)	(50,2)	(144,0)	(128,0)	(126,0)	(83,0)	
L1D -134>	(133,18)	(42,4)	(132,13)	(49,37)	(-1,17)	(40,4)	(47,23)	(48,99)	(37,10)	(50,53)	(36,8)	(41,1)	(45,12)	(32,4)	(30,6)	(46,29)	
L1D -133>	(1,62)	(134,14)	(121,8)	(135,8)	(50,53)	(48,109)	(47,98)	(-1,35)	(44,11)	(132,44)	(179,42)	(20,1)	(46,21)	(37,4)	(183,4)	(49,120)	
L1D -132>	(45,56)	(121,6)	(44,23)	(30,6)	(47,60)	(38,1)	(43,89)	(-1,123)	(46,84)	(39,13)	(49,24)	(119,22)	(131,44)	(50,43)	(127,12)	(140,4)	
L1D -131>	(132,52)	(45,27)	(133,7)	(46,83)	(50,15)	(41,24)	(42,1)	(49,55)	(1,14)	(48,39)	(38,6)	(128,6)	(35,10)	(44,22)	(-1,10)	(36,9)	
L1D -130>	(33,1)	(45,87)	(50,8)	(48,32)	(25,3)	(134,13)	(46,24)	(-1,20)	(131,12)	(39,18)	(220,36)	(44,22)	(1,11)	(41,29)	(221,8)	(49,102)	
L1D -129>	(1,118)	(140,3)	(221,2)	(44,2)	(45,4)	(46,4)	(48,3)	(33,1)	(47,4)	(128,3)	(-1,1)	(131,10)	(50,13)	(38,4)	(222,5)	(134,1)	
L1D -128>	(31,1)	(1,3)	(45,12)	(218,26)	(44,6)	(132,5)	(131,10)	(130,10)	(35,12)	(86,16)	(126,38)	(127,27)	(129,14)	(49,34)	(221,32)	(54,4)	
L1D -127>	(218,14)	(220,10)	(128,12)	(2,8)	(33,6)	(49,27)	(1,3)	(44,25)	(34,4)	(85,18)	(207,5)	(216,9)	(-1,15)	(221,23)	(124,1)	(35,3)	
L1D -126>	(127,14)	(48,33)	(47,31)	(43,32)	(2,8)	(42,19)	(84,29)	(217,14)	(128,7)	(219,9)	(49,10)	(29,121)	(140,2)	(32,4)	(221,18)	(50,88)	
L1D -125>	(221,18)	(218,19)	(34,5)	(47,34)	(42,53)	(40,15)	(132,11)	(30,4)	(83,41)	(85,1)	(-1,17)	(50,34)	(41,7)	(220,5)	(29,24)	(126,6)	
L1D -124>	(129,3)	(41,4)	(222,2)	(48,1)	(220,2)	(125,2)	(82,4)	(42,3)	(50,30)	(32,3)	(47,2)	(52,23)	(123,4)	(217,5)	(-1,5)	(2,71)	
L1D -123>	(25,8)	(40,42)	(48,81)	(50,67)	(1,4)	(139,1)	(38,32)	(49,3)	(41,63)	(124,9)	(33,4)	(133,9)	(67,8)	(129,8)	(59,16)	(221,5)	
L1D -122>	(39,14)	(220,1)	(75,2)	(218,9)	(40,31)	(50,69)	(132,11)	(1,29)	(80,4)	(66,5)	(54,3)	(37,12)	(47,9)	(125,3)	(215,5)	(131,8)	
L1D -121>	(38,1)	(1,70)	(80,1)	(50,4)	(64,0)	(31,0)	(34,2)	(125,0)	(217,0)	(49,0)	(48,3)	(39,1)	(133,1)	(222,0)	(21,0)	(128,0)	
L1D -120>	(91,3)	(120,13)	(50,36)	(127,7)	(220,4)	(213,4)	(122,10)	(67,5)	(37,50)	(48,28)	(140,1)	(128,14)	(49,58)	(19,14)	(38,10)	(215,7)	
L1D -119>	(54,5)	(34,17)	(36,35)	(50,62)	(120,5)	(48,13)	(213,9)	(110,4)	(132,6)	(126,3)	(79,1)	(19,2)	(222,11)	(127,3)	(131,3)	(214,5)	
L1D -118>	(75,71)	(19,122)	(49,33)	(50,99)	(35,52)	(48,34)	(1,1)	(85,2)	(212,13)	(213,7)	(128,17)	(23,2)	(40,2)	(222,19)	(29,5)	(-1,22)	
L1D -117>	(210,12)	(73,1)	(75,25)	(208,16)	(219,3)	(74,27)	(0,8)	(118,5)	(34,25)	(32,3)	(35,38)	(120,9)	(116,23)	(211,4)	(209,5)	(-1,23)	
L1D -116>	(33,52)	(42,3)	(49,39)	(115,52)	(75,13)	(50,50)	(34,8)	(128,9)	(74,41)	(205,9)	(-1,57)	(211,20)	(127,6)	(134,10)	(221,1)	(117,16)	
L1D -115>	(32,40)	(50,40)	(116,4)	(49,16)	(73,44)	(208,14)	(-1,25)	(33,39)	(72,19)	(222,7)	(112,6)	(133,1)	(117,7)	(206,2)	(48,34)	(209,16)	
L1D -114>	(209,8)	(221,1)	(115,7)	(46,10)	(31,25)	(132,14)	(50,39)	(32,30)	(113,6)	(72,26)	(-1,24)	(207,10)	(206,4)	(29,4)	(49,3)	(210,4)	
L1D -113>	(84,76)	(30,66)	(48,22)	(134,7)	(114,8)	(49,16)	(128,1)	(47,2)	(204,7)	(109,3)	(31,88)	(202,5)	(71,28)	(-1,37)	(206,11)	(208,8)	
L1D -112>	(29,6)	(113,3)	(84,74)	(70,11)	(205,7)	(50,4)	(-1,4)	(24,3)	(111,9)	(69,10)	(203,14)	(28,3)	(109,3)	(26,6)	(133,6)	(66,1)	
L1D -111>	(112,7)	(50,40)	(84,98)	(48,9)	(28,57)	(206,18)	(69,48)	(30,1)	(49,10)	(25,15)	(26,12)	(29,21)	(-1,34)	(27,13)	(110,26)	(222,8)	
L1D -110>	(109,7)	(-1,42)	(84,120)	(28,16)	(50,24)	(203,5)	(205,11)	(27,13)	(111,13)	(68,10)	(132,1)	(86,23)	(105,9)	(25,7)	(24,11)	(104,7)	
L1D -109>	(27,36)	(84,123)	(26,20)	(49,4)	(50,19)	(29,15)	(23,7)	(205,1)	(20,6)	(110,2)	(48,11)	(204,21)	(28,12)	(19,8)	(-1,20)	(206,27)	
L1D -108>	(24,11)	(109,3)	(84,77)	(203,2)	(-1,12)	(83,4)	(105,33)	(26,12)	(23,5)	(25,2)	(93,5)	(27,5)	(120,1)	(107,2)	(44,4)	(50,7)	
L1D -107>	(84,110)	(50,21)	(134,2)	(25,19)	(22,8)	(26,3)	(24,23)	(29,1)	(52,2)	(111,1)	(-1,3)	(106,3)	(15,2)	(152,6)	(114,2)	(200,5)	
L1D -106>	(28,9)	(84,75)	(21,2)	(23,3)	(107,2)	(93,5)	(-1,7)	(85,13)	(1,4)	(13,1)	(24,2)	(50,42)	(86,6)	(3,1)	(25,1)	(27,1)	
L1D -105>	(84,115)	(22,18)	(222,1)	(1,14)	(2,4)	(107,1)	(13,1)	(23,32)	(85,3)	(-1,3)	(93,4)	(199,4)	(106,3)	(195,4)	(50,3)	(18,4)	
L1D -104>	(84,109)	(105,2)	(21,3)	(18,5)	(15,20)	(95,2)	(85,17)	(102,3)	(104,3)	(2,26)	(103,16)	(10,6)	(111,1)	(194,5)	(22,21)	(108,3)	
L1D -103>	(84,76)	(121,3)	(9,2)	(18,12)	(85,3)	(-114,1)	(22,2)	(27,3)	(107,4)	(100,5)	(21,4)	(196,1)	(118,1)	(2,1)	(17,3)	(49,1)	
L1D -102>	(103,3)	(84,87)	(17,3)	(1,1)	(101,4)	(8,1)	(18,1)	(97,1)	(200,2)	(99,2)	(93,1)	(85,1)	(14,1)	(15,0)	(16,1)	(86,3)	
L1D -101>	(97,4)	(84,87)	(16,10)	(-118,1)	(19,1)	(85,13)	(2,3)	(121,2)	(14,1)	(15,2)	(96,1)	(11,1)	(-120,1)	(103,7)	(93,1)	(6,1)	
L1D -100>	(85,6)	(44,3)	(84,81)	(15,3)	(36,2)	(1,1)	(58,36)	(99,1)	(-111,1)	(16,3)	(14,4)	(2,1)	(123,1)	(95,1)	(6,1)	(20,2)	
L1D -99>	(84,122)	(12,1)	(5,1)	(1,76)	(-113,1)	(-25,1)	(101,1)	(-33,1)	(96,3)	(25,2)	(13,3)	(85,12)	(-110,1)	(7,1)	(18,1)	(14,2)	
L1D -98>	(84,119)	(-36,3)	(1,3)	(139,5)	(85,4)	(95,1)	(97,3)	(13,2)	(91,4)	(-112,4)	(137,6)	(4,14)	(6,2)	(140,10)	(12,8)	(96,9)	
L1D -97>	(86,1)	(84,84)	(1,1)	(12,2)	(59,2)	(-5,1)	(2,1)	(137,1)	(136,1)	(95,1)	(96,6)	(3,1)	(11,1)	(27,3)	(85,5)	(139,0)	
L1D -96>	(84,124)	(11,6)	(95,3)	(132,1)	(91,17)	(-110,1)	(92,13)	(2,4)	(90,21)	(85,3)	(-30,1)	(1,3)	(-126,1)	(79,1)	(-1,3)	(93,10)	
L1D -95>	(90,3)	(139,2)	(11,1)	(84,66)	(10,1)	(1,1)	(9,5)	(-126,1)	(85,1)	(94,6)	(8,1)	(-1,9)	(136,1)	(-5,1)	(92,7)	(93,4)	
L1D -94>	(1,78)	(84,118)	(91,37)	(93,97)	(94,54)	(95,31)	(-1,71)	(92,61)	(97,39)	(99,22)	(-112,12)	(-2,60)	(90,20)	(129,1)	(102,24)	(96,32)	
L1D -93>	(94,19)	(1,65)	(99,1)	(93,1)	(10,1)	(2,1)	(84,61)	(90,3)	(96,1)	(83,3)	(91,3)	(4,5)	(8,2)	(-12,1)	(85,3)	(-1,4)	
L1D -92>	(91,47)	(8,11)	(93,27)	(1,13)	(84,100)	(95,11)	(96,8)	(92,8)	(85,12)	(-1,29)	(90,28)	(-41,1)	(102,4)	(89,8)	(99,5)	(94,65)	
L1D -91>	(92,2)	(1,17)	(104,1)	(84,65)	(5,2)	(-1,4)	(93,7)	(4,3)	(88,6)	(90,2)	(95,3)	(-12,3)	(85,8)	(-2,1)	(-8,2)	(-6,2)	
L1D -90>	(89,12)	(-44,8)	(100,1)	(84,115)	(5,14)	(88,11)	(87,3)	(86,3)	(91,3)	(144,8)	(3,5)	(2,7)	(85,6)	(-42,6)	(-12,11)	(93,18)	
L1D -89>	(128,1)	(84,104)	(4,20)	(2,58)	(88,11)	(86,21)	(-8,20)	(-13,7)	(85,34)	(15,9)	(-45,9)	(1,78)	(87,17)	(-42,7)	(6,3)	(-43,22)	
L1D -88>	(-10,15)	(2,12)	(-1,8)	(84,90)	(85,18)	(86,7)	(87,7)	(83,27)	(-6,2)	(-9,15)	(82,16)	(93,1)	(-4,3)	(-5,12)	(-17,13)	(-15,7)	
L1D -87>	(-6,14)	(138,5)	(-2,8)	(-10,16)	(-48,1)	(84,110)	(-11,9)	(81,11)	(86,11)	(-17,20)	(83,28)	(-1,68)	(82,18)	(1,19)	(-7,11)	(85,18)	
L1D -86>	(82,18)	(-15,6)	(80,4)	(-13,10)	(84,84)	(-2,29)	(-1,14)	(-14,9)	(83,26)	(-47,10)	(-7,6)	(-17,6)	(142,1)	(85,15)	(-48,31)	(-9,13)	
L1D -85>	(84,106)	(-4,14)	(-14,6)	(-2,24)	(83,43)	(82,37)	(-6,9)	(81,8)	(139,1)	(-13,12)	(-7,7)	(-1,20)	(-12,16)	(-9,25)	(-3,20)	(80,23)	
L1D -84>	(85,12)	(-8,23)	(84,41)	(114,14)	(136,1)	(-14,4)	(-4,23)	(-6,17)	(115,24)	(86,6)	(-15,10)	(-3,15)	(-1,57)	(-13,18)	(-9,12)	(-2,72)	
L1D -83>	(123,1)	(82,13)	(86,30)	(-2,4)	(84,121)	(93,5)	(18,10)	(96,11)	(3,11)	(-1,6)	(87,8)	(14,12)	(10,15)	(92,8)	(1,9)	(88,31)	
L1D -82>	(85,17)	(84,41)	(4,10)	(86,4)	(127,1)	(81,121)	(-1,7)	(87,5)	(88,3)	(1,11)	(-3,1)	(8,2)	(89,1)	(101,1)	(13,2)	(2,5)	
L1D -81>	(80,106)	(116,1)	(15,1)	(-1,4)	(2,1)	(84,12)	(88,1)	(82,2)	(21,1)	(98,1)	(-2,3)	(11,1)	(3,2)	(-8,1)	(86,5)	(-18,1)	
L1D -80>	(82,8)	(81,6)	(1,14)	(84,64)	(-3,3)	(134,1)	(12,5)	(-50,4)	(-4,4)	(85,14)	(-1,9)	(83,4)	(-2,7)	(6,2)	(2,10)	(8,5)	
L1D -79>	(-50,9)	(140,4)	(80,3)	(84,65)	(-4,4)	(109,1)	(83,14)	(82,11)	(-3,4)	(-5,8)	(-48,4)	(-1,6)	(-2,11)	(85,5)	(81,17)	(86,3)	
L1D -78>	(81,19)	(-3,5)	(1,4)	(84,88)	(-5,6)	(80,12)	(-12,1)	(-9,6)	(-18,1)	(-14,3)	(-2,5)	(83,5)	(-48,2)	(-50,10)	(85,5)	(82,7)	
L1D -77>	(84,76)	(80,17)	(-4,4)	(121,1)	(-1,9)	(-50,2)	(79,8)	(-2,3)	(81,12)	(-6,2)	(-5,3)	(2,1)	(85,2)	(83,8)	(-3,6)	(86,1)	
L1D -76>	(118,2)	(84,70)	(-7,2)	(-2,1)	(116,1)	(5,1)	(83,7)	(-48,2)	(-1,2)	(80,6)	(128,1)	(78,2)	(82,1)	(-3,4)	(117,1)	(74,2)	
L1D -75>	(76,2)	(-47,2)	(84,93)	(-8,4)	(79,14)	(118,1)	(78,3)	(-6,5)	(85,3)	(83,8)	(140,2)	(-1,9)	(77,6)	(80,1)	(-50,1)	(126,2)	
L1D -74>	(78,3)	(-9,21)	(84,108)	(7,2)	(-16,3)	(79,2)	(-2,17)	(1,1)	(75,3)	(2,5)	(130,5)	(85,3)	(224,6)	(76,5)	(-1,21)	(83,11)	
L1D -73>	(21,12)	(74,4)	(84,79)	(-9,7)	(-10,7)	(79,5)	(83,12)	(-48,1)	(-50,3)	(105,11)	(75,6)	(116,5)	(115,3)	(117,3)	(110,3)	(-1,6)	
L1D -72>	(116,1)	(84,99)	(-11,9)	(73,5)	(83,11)	(-10,17)	(-1,18)	(71,2)	(117,1)	(74,2)	(-23,1)	(76,4)	(80,1)	(63,1)	(81,2)	(127,2)	
L1D -71>	(73,2)	(84,78)	(115,1)	(114,1)	(117,1)	(-12,5)	(83,4)	(-2,7)	(-10,14)	(-50,1)	(86,1)	(72,2)	(79,3)	(-11,7)	(61,6)	(-1,12)	
L1D -70>	(114,1)	(84,78)	(-13,8)	(-12,5)	(-1,9)	(127,1)	(-50,4)	(71,4)	(86,1)	(-48,4)	(-11,7)	(110,11)	(128,5)	(111,7)	(69,4)	(112,6)	
L1D -69>	(30,20)	(57,3)	(-14,9)	(84,124)	(83,9)	(-1,13)	(72,11)	(109,2)	(71,3)	(-12,5)	(112,3)	(-49,1)	(113,2)	(127,1)	(-48,4)	(-13,5)	
L1D -68>	(-2,3)	(-15,16)	(84,99)	(1,8)	(116,4)	(85,3)	(69,15)	(111,5)	(112,1)	(-1,16)	(115,8)	(105,18)	(-3,1)	(70,2)	(-14,2)	(139,5)	
L1D -67>	(-15,11)	(83,21)	(84,78)	(-16,6)	(112,1)	(110,6)	(-1,3)	(71,6)	(85,2)	(111,1)	(121,1)	(-46,4)	(57,1)	(-13,2)	(69,6)	(-14,1)	
L1D -66>	(85,1)	(84,85)	(-17,5)	(-3,1)	(43,1)	(42,1)	(71,7)	(83,2)	(116,2)	(110,1)	(112,3)	(-16,3)	(82,1)	(118,3)	(-15,4)	(-1,13)	
L1D -65>	(-16,1)	(84,66)	(-18,16)	(-48,4)	(224,2)	(121,0)	(1,16)	(66,3)	(-1,4)	(123,2)	(67,13)	(112,9)	(-2,2)	(-17,1)	(-50,2)	(83,1)	
L1D -64>	(-19,21)	(84,85)	(121,2)	(82,1)	(83,2)	(1,6)	(8,3)	(-80,2)	(122,2)	(120,15)	(89,1)	(-1,9)	(214,15)	(65,12)	(-50,5)	(85,6)	
L1D -63>	(61,1)	(-20,10)	(84,76)	(64,7)	(120,3)	(65,9)	(42,1)	(58,1)	(57,1)	(-2,2)	(7,1)	(1,2)	(9,2)	(-1,3)	(21,2)	(122,0)	
L1D -62>	(84,85)	(-21,18)	(-77,3)	(42,3)	(83,1)	(-1,1)	(120,4)	(61,4)	(63,1)	(8,1)	(5,1)	(-48,1)	(85,21)	(214,3)	(43,1)	(65,1)	
L1D -61>	(84,104)	(58,1)	(42,5)	(-22,7)	(-1,21)	(63,37)	(62,3)	(19,4)	(60,2)	(-85,1)	(57,3)	(-21,4)	(-23,2)	(-3,1)	(43,1)	(1,2)	
L1D -60>	(62,5)	(-1,1)	(84,82)	(-23,19)	(57,3)	(4,1)	(60,21)	(61,2)	(63,1)	(67,4)	(-82,1)	(42,3)	(85,4)	(19,3)	(43,3)	(-86,2)	
L1D -59>	(-48,1)	(84,72)	(-24,5)	(42,8)	(-87,3)	(45,2)	(-50,1)	(-21,1)	(-23,1)	(-2,1)	(58,4)	(43,7)	(-19,14)	(61,1)	(17,18)	(55,3)	
L1D -58>	(57,8)	(-25,7)	(1,6)	(84,70)	(42,15)	(53,1)	(61,2)	(59,3)	(16,1)	(-24,1)	(-19,3)	(56,5)	(-65,2)	(60,1)	(114,28)	(208,24)	
L1D -57>	(1,95)	(84,50)	(44,3)	(52,3)	(64,1)	(42,5)	(-26,7)	(53,4)	(-4,1)	(35,1)	(12,1)	(59,2)	(55,6)	(43,8)	(-1,6)	(48,1)	
L1D -56>	(57,66)	(317,1)	(55,72)	(59,70)	(56,5)	(63,25)	(61,33)	(60,37)	(42,25)	(58,93)	(64,29)	(69,14)	(54,63)	(84,63)	(62,45)	(66,28)	
L1D -55>	(-50,1)	(316,18)	(42,37)	(-1,100)	(1,4)	(56,13)	(57,13)	(36,7)	(-90,5)	(84,55)	(317,5)	(315,3)	(318,7)	(13,6)	(279,28)	(63,10)	
L1D -54>	(55,10)	(-2,35)	(12,14)	(-1,29)	(314,18)	(315,21)	(52,4)	(42,28)	(2,1)	(-29,2)	(10,5)	(313,5)	(84,23)	(318,16)	(312,7)	(43,17)	
L1D -53>	(1,107)	(57,2)	(317,3)	(311,1)	(42,10)	(55,14)	(56,14)	(54,3)	(-4,1)	(-3,3)	(84,12)	(50,1)	(61,1)	(306,1)	(43,3)	(316,1)	
L1D -52>	(10,23)	(53,10)	(313,8)	(0,5)	(42,12)	(-4,5)	(1,2)	(-1,12)	(-31,95)	(-30,3)	(-2,7)	(43,7)	(-6,13)	(-5,3)	(84,1)	(305,5)	
L1D -51>	(9,15)	(52,7)	(1,10)	(42,28)	(317,1)	(56,13)	(318,7)	(8,3)	(53,11)	(314,8)	(316,3)	(49,2)	(47,2)	(54,2)	(55,8)	(43,11)	
L1D -50>	(48,29)	(134,105)	(130,4)	(-1,22)	(1,40)	(52,2)	(47,3)	(42,17)	(49,3)	(45,2)	(309,1)	(54,3)	(44,3)	(132,5)	(133,77)	(131,6)	
L1D -49>	(-7,4)	(1,46)	(133,111)	(312,5)	(42,13)	(132,48)	(4,10)	(6,9)	(316,4)	(47,18)	(134,7)	(45,8)	(48,15)	(0,6)	(103,6)	(51,1)	
L1D -48>	(49,8)	(132,93)	(35,13)	(-57,4)	(129,2)	(42,26)	(36,7)	(-1,11)	(1,2)	(6,11)	(-50,12)	(133,63)	(45,16)	(43,27)	(52,18)	(47,1)	
L1D -47>	(131,122)	(132,49)	(38,21)	(206,4)	(27,1)	(308,3)	(42,23)	(1,34)	(5,14)	(41,44)	(48,62)	(130,47)	(43,20)	(-1,13)	(8,3)	(46,15)	
L1D -46>	(130,8)	(48,18)	(40,68)	(2,13)	(4,11)	(1,9)	(53,1)	(42,7)	(318,1)	(47,13)	(43,16)	(44,18)	(41,8)	(49,3)	(-10,2)	(133,14)	
L1D -45>	(1,12)	(129,18)	(41,34)	(-67,6)	(-1,26)	(42,56)	(130,17)	(46,41)	(43,86)	(-73,64)	(-95,2)	(40,61)	(44,56)	(47,21)	(-11,14)	(48,22)	
L1D -44>	(-1,21)	(128,21)	(45,35)	(1,29)	(42,69)	(39,28)	(46,85)	(316,1)	(2,64)	(43,69)	(37,18)	(29,15)	(31,29)	(36,40)	(-14,7)	(41,125)	
L1D -43>	(44,5)	(50,28)	(-5,15)	(42,109)	(-97,1)	(40,69)	(-1,47)	(-9,7)	(45,30)	(133,22)	(29,10)	(-68,26)	(41,116)	(46,14)	(-73,10)	(1,91)	
L1D -42>	(44,38)	(43,46)	(46,15)	(41,92)	(1,18)	(49,11)	(52,1)	(39,15)	(45,36)	(-68,9)	(35,11)	(40,60)	(-2,25)	(53,12)	(50,16)	(48,30)	
L1D -41>	(-1,21)	(42,79)	(2,43)	(28,11)	(318,1)	(26,8)	(30,10)	(43,40)	(33,5)	(46,19)	(38,19)	(29,14)	(34,3)	(49,6)	(48,6)	(44,23)	
L1D -40>	(1,48)	(-1,13)	(124,14)	(41,54)	(133,32)	(43,73)	(314,1)	(303,2)	(42,105)	(49,26)	(-2,30)	(27,22)	(47,12)	(2,16)	(18,4)	(37,8)	
L1D -39>	(128,19)	(40,22)	(123,18)	(132,19)	(42,99)	(1,37)	(2,13)	(-3,13)	(48,16)	(-1,64)	(41,32)	(45,6)	(28,26)	(318,1)	(-4,7)	(131,5)	
L1D -38>	(206,13)	(122,15)	(2,16)	(48,1)	(1,6)	(42,49)	(189,55)	(39,15)	(130,17)	(301,3)	(-4,14)	(41,50)	(133,4)	(131,3)	(4,15)	(-18,9)	
L1D -37>	(132,4)	(300,7)	(-5,17)	(42,68)	(39,16)	(38,18)	(5,5)	(303,1)	(-35,47)	(-1,18)	(2,4)	(121,9)	(24,16)	(35,14)	(-4,8)	(41,49)	
L1D -36>	(37,8)	(131,13)	(39,1)	(41,18)	(315,2)	(50,26)	(42,34)	(130,3)	(120,23)	(2,8)	(-20,4)	(43,3)	(-1,10)	(318,6)	(0,20)	(-76,18)	
L1D -35>	(2,4)	(42,49)	(299,1)	(-6,5)	(41,17)	(19,14)	(0,48)	(36,29)	(-7,18)	(48,15)	(119,34)	(-13,20)	(23,4)	(298,8)	(34,21)	(120,2)	
L1D -34>	(118,26)	(297,7)	(41,6)	(85,9)	(42,54)	(-9,3)	(-7,15)	(-8,5)	(52,1)	(-1,14)	(36,37)	(2,14)	(133,2)	(-22,12)	(17,25)	(46,9)	
L1D -33>	(117,34)	(42,44)	(296,9)	(-23,25)	(39,1)	(18,10)	(294,4)	(292,8)	(293,8)	(50,33)	(34,42)	(132,6)	(35,16)	(317,4)	(-76,7)	(-9,18)	
L1D -32>	(123,24)	(-1,8)	(56,1)	(-9,9)	(42,7)	(34,9)	(-24,3)	(116,5)	(40,6)	(0,4)	(73,127)	(72,6)	(-11,1)	(26,2)	(-10,9)	(318,1)	
L1D -31>	(32,7)	(31,14)	(2,118)	(1,12)	(42,26)	(84,20)	(5,44)	(-10,8)	(41,13)	(294,12)	(-1,28)	(295,8)	(83,3)	(115,8)	(134,3)	(0,1)	
L1D -30>	(1,47)	(29,6)	(-12,16)	(42,15)	(3,65)	(0,7)	(5,59)	(31,4)	(38,6)	(84,2)	(294,5)	(-14,10)	(292,2)	(-25,1)	(32,10)	(123,8)	
L1D -29>	(1,42)	(28,5)	(37,69)	(27,1)	(14,4)	(2,117)	(42,19)	(-12,6)	(29,31)	(8,90)	(6,11)	(3,110)	(4,48)	(5,26)	(-1,5)	(19,17)	
L1D -28>	(1,125)	(107,7)	(27,15)	(3,31)	(33,15)	(2,32)	(42,12)	(-12,8)	(56,1)	(50,14)	(29,16)	(5,19)	(11,3)	(23,7)	(25,13)	(32,20)	
L1D -27>	(1,11)	(57,1)	(27,27)	(8,80)	(-15,3)	(4,7)	(42,3)	(24,3)	(2,4)	(111,2)	(5,2)	(35,3)	(-29,3)	(25,2)	(3,7)	(6,2)	
L1D -26>	(25,17)	(1,91)	(2,58)	(27,33)	(55,1)	(34,6)	(84,36)	(23,8)	(-3,8)	(3,73)	(110,69)	(4,26)	(22,32)	(111,16)	(6,19)	(198,14)	
L1D -25>	(1,45)	(24,13)	(10,13)	(42,16)	(-60,57)	(84,13)	(2,100)	(-83,80)	(5,18)	(50,1)	(4,29)	(19,10)	(3,23)	(23,9)	(109,28)	(6,5)	
L1D -24>	(1,88)	(2,36)	(23,2)	(27,3)	(59,2)	(5,10)	(3,9)	(26,1)	(-238,2)	(84,19)	(107,2)	(-61,2)	(-42,23)	(-83,7)	(50,9)	(21,5)	
L1D -23>	(1,114)	(10,6)	(22,75)	(21,29)	(2,39)	(84,48)	(283,1)	(-83,21)	(-81,20)	(107,15)	(3,20)	(19,25)	(6,91)	(18,67)	(4,51)	(20,77)	
L1D -22>	(1,81)	(19,1)	(21,23)	(3,57)	(2,50)	(6,47)	(84,42)	(7,82)	(-5,5)	(16,95)	(-63,19)	(5,22)	(17,53)	(23,14)	(18,104)	(20,89)	
L1D -21>	(1,49)	(20,6)	(-42,2)	(-83,10)	(2,19)	(3,5)	(-64,7)	(84,29)	(17,6)	(19,7)	(15,54)	(5,21)	(18,29)	(-65,7)	(6,98)	(7,10)	
L1D -20>	(-243,1)	(1,3)	(9,0)	(2,5)	(6,18)	(15,8)	(10,5)	(84,6)	(20,65)	(16,2)	(14,11)	(-261,1)	(31,5)	(28,3)	(5,35)	(-83,5)	
L1D -19>	(30,3)	(-10,1)	(43,1)	(13,15)	(2,4)	(84,2)	(4,66)	(15,15)	(14,21)	(31,2)	(3,3)	(6,17)	(-7,1)	(16,5)	(27,2)	(5,4)	
L1D -18>	(16,1)	(1,10)	(2,14)	(15,13)	(12,14)	(11,27)	(84,15)	(3,74)	(4,55)	(-83,5)	(24,13)	(6,36)	(5,38)	(30,11)	(14,22)	(28,32)	
L1D -17>	(-262,2)	(2,69)	(-92,4)	(28,4)	(24,1)	(6,25)	(4,61)	(3,6)	(84,47)	(5,7)	(13,17)	(12,1)	(26,7)	(15,8)	(11,19)	(23,1)	
L1D -16>	(1,39)	(-42,1)	(2,23)	(4,124)	(6,60)	(3,13)	(11,16)	(84,19)	(25,2)	(26,18)	(-262,5)	(12,6)	(29,9)	(-83,9)	(10,8)	(14,17)	
L1D -15>	(1,75)	(2,22)	(14,17)	(11,57)	(5,2)	(-56,5)	(10,26)	(4,119)	(84,59)	(7,20)	(12,46)	(6,54)	(9,41)	(-83,10)	(13,37)	(3,40)	
L1D -14>	(1,9)	(13,7)	(4,80)	(11,1)	(-56,3)	(6,15)	(2,28)	(8,10)	(12,9)	(-83,12)	(3,7)	(9,17)	(84,40)	(-262,5)	(10,12)	(-42,8)	
L1D -13>	(7,1)	(1,8)	(9,2)	(4,12)	(6,113)	(5,29)	(3,4)	(24,2)	(84,14)	(22,7)	(20,2)	(10,3)	(2,9)	(18,6)	(-42,10)	(8,5)	
L1D -12>	(1,19)	(11,27)	(-83,25)	(-42,14)	(96,12)	(3,18)	(2,45)	(6,111)	(17,10)	(7,1)	(84,59)	(5,79)	(4,49)	(8,9)	(9,31)	(10,60)	
L1D -11>	(43,2)	(-262,5)	(-83,3)	(8,6)	(-12,1)	(4,95)	(10,5)	(57,1)	(6,20)	(2,4)	(3,15)	(-85,1)	(5,15)	(18,13)	(7,5)	(84,12)	
L1D -10>	(8,20)	(9,74)	(1,48)	(12,1)	(94,51)	(3,27)	(2,16)	(6,60)	(51,2)	(43,17)	(-83,6)	(-42,17)	(21,10)	(4,126)	(84,42)	(-94,3)	
L1D -9>	(8,17)	(0,10)	(1,12)	(2,102)	(3,7)	(21,1)	(6,57)	(-10,2)	(84,70)	(14,5)	(5,7)	(4,31)	(-83,2)	(16,8)	(-42,9)	(-92,6)	
L1D -8>	(1,18)	(4,106)	(7,64)	(-92,5)	(2,62)	(9,16)	(-262,2)	(6,54)	(-3,23)	(-18,2)	(11,8)	(-9,3)	(84,24)	(3,8)	(13,9)	(5,9)	
L1D -7>	(1,8)	(14,1)	(6,47)	(-83,5)	(5,17)	(12,6)	(-56,7)	(-9,14)	(-42,13)	(-262,6)	(2,36)	(4,116)	(-14,7)	(84,48)	(-1,31)	(0,6)	
L1D -6>	(1,25)	(5,100)	(4,113)	(-13,89)	(-17,16)	(-12,48)	(-9,1)	(-42,9)	(2,25)	(-15,51)	(-8,62)	(-2,113)	(84,37)	(-11,63)	(9,7)	(-1,62)	
L1D -5>	(4,27)	(-11,37)	(-4,1)	(-15,16)	(6,38)	(2,11)	(3,8)	(-18,12)	(84,14)	(-12,32)	(8,83)	(-13,32)	(-16,17)	(-1,55)	(-5,11)	(-3,102)	
L1D -4>	(-5,41)	(3,29)	(1,0)	(-13,33)	(-6,19)	(-15,64)	(-8,39)	(-1,19)	(-4,26)	(-3,32)	(84,8)	(-16,8)	(-17,26)	(-18,4)	(-2,13)	(-11,51)	
L1D -3>	(-17,26)	(1,13)	(2,95)	(-2,27)	(-4,50)	(6,51)	(-9,27)	(-6,11)	(84,17)	(3,1)	(-13,39)	(-11,116)	(-5,61)	(-8,12)	(-10,38)	(-1,30)	
L1D -2>	(-2,40)	(-5,52)	(-1,38)	(-16,48)	(-19,34)	(-7,16)	(-23,1)	(-17,25)	(-9,12)	(-13,59)	(1,79)	(-3,30)	(-10,9)	(-11,49)	(-4,28)	(-15,21)	
L1D -1>	(-1,103)	(-5,7)	(-13,6)	(-21,1)	(-22,2)	(-4,6)	(-18,2)	(-15,2)	(-9,2)	(-41,2)	(40,1)	(-3,4)	(-19,4)	(-2,6)	(35,1)	(-6,2)	
L1D 0>	(-1,1)	(-6,7)	(33,2)	(-39,0)	(-2,1)	(-28,1)	(-27,0)	(-4,1)	(-5,0)	(-8,1)	(3,2)	(11,0)	(130,1)	(-12,2)	(0,65)	(8,0)	
L1D 1>	(1,64)	(-7,1)	(-1,4)	(90,1)	(122,3)	(8,4)	(264,2)	(2,7)	(3,1)	(11,5)	(130,4)	(5,4)	(9,2)	(84,4)	(-13,1)	(4,4)	
L1D 2>	(1,56)	(2,11)	(13,13)	(12,18)	(14,9)	(4,47)	(8,56)	(6,83)	(-2,74)	(-1,8)	(5,32)	(23,1)	(10,13)	(9,12)	(11,10)	(-83,12)	
L1D 3>	(-2,36)	(-11,1)	(-1,18)	(-83,16)	(1,10)	(5,19)	(6,39)	(-3,120)	(2,11)	(13,15)	(-7,61)	(4,27)	(-15,20)	(-13,17)	(8,28)	(84,22)	
L1D 4>	(-1,20)	(9,1)	(21,26)	(1,27)	(84,21)	(-16,12)	(32,13)	(-3,2)	(17,12)	(33,7)	(6,7)	(8,33)	(-4,5)	(2,74)	(3,73)	(4,9)	
L1D 5>	(-1,70)	(9,34)	(-4,8)	(1,20)	(-2,83)	(6,55)	(84,10)	(-18,1)	(18,7)	(-7,13)	(-86,10)	(-3,26)	(11,24)	(3,13)	(14,6)	(-42,9)	
L1D 6>	(11,20)	(-1,38)	(-5,21)	(-4,5)	(1,22)	(2,95)	(-8,4)	(-2,24)	(-6,39)	(-18,8)	(84,7)	(10,26)	(-14,13)	(-94,3)	(8,31)	(21,1)	
L1D 7>	(-6,11)	(-1,10)	(11,8)	(-2,51)	(2,19)	(-9,9)	(84,19)	(1,14)	(-5,9)	(-3,10)	(-8,4)	(-85,6)	(-4,96)	(9,5)	(14,1)	(8,6)	
L1D 8>	(-12,1)	(84,27)	(-1,33)	(-6,53)	(-17,7)	(-4,98)	(-8,61)	(-2,52)	(8,71)	(-3,77)	(-5,17)	(3,49)	(7,19)	(-124,12)	(1,27)	(-7,3)	
L1D 9>	(-1,16)	(-2,42)	(55,2)	(-8,21)	(84,12)	(15,3)	(-7,9)	(-4,68)	(-3,74)	(-6,55)	(3,11)	(8,3)	(1,2)	(-5,19)	(-16,1)	(-85,6)	
L1D 10>	(-1,58)	(-9,22)	(-8,91)	(-92,9)	(-2,21)	(31,23)	(-3,93)	(-4,73)	(-5,9)	(-6,70)	(-10,71)	(11,1)	(-85,9)	(84,26)	(74,12)	(-7,10)	
L1D 11>	(-10,11)	(-5,5)	(-1,15)	(84,11)	(8,1)	(-2,8)	(-4,89)	(-8,8)	(-9,2)	(-3,15)	(-7,4)	(-42,2)	(-85,5)	(-71,3)	(-6,16)	(-87,1)	
L1D 12>	(-10,33)	(-11,25)	(-1,26)	(-28,1)	(-2,61)	(-5,124)	(-8,20)	(-4,29)	(-9,22)	(-30,9)	(-95,11)	(-12,53)	(84,29)	(-85,14)	(-6,63)	(-3,16)	
L1D 13>	(-11,52)	(-12,25)	(-5,22)	(-1,46)	(-2,37)	(-95,10)	(-10,22)	(-6,95)	(-4,24)	(1,1)	(-262,3)	(-9,21)	(-85,8)	(-3,9)	(84,15)	(2,6)	
L1D 14>	(-13,43)	(-12,32)	(-1,26)	(-6,61)	(-10,18)	(-9,9)	(-11,17)	(-4,8)	(84,29)	(-97,20)	(-85,8)	(-5,13)	(-2,105)	(-3,59)	(-22,1)	(-7,21)	
L1D 15>	(-14,53)	(-1,16)	(-13,23)	(-11,127)	(-12,31)	(-3,60)	(-5,22)	(-2,42)	(-4,44)	(-262,2)	(-6,94)	(-10,46)	(84,34)	(11,19)	(-85,9)	(-98,13)	
L1D 16>	(-15,9)	(-14,3)	(-1,123)	(-42,3)	(-12,6)	(-4,53)	(-6,2)	(-13,17)	(-2,5)	(-10,3)	(-56,2)	(84,12)	(-3,9)	(41,1)	(68,2)	(-85,3)	
L1D 17>	(-15,8)	(-1,8)	(-16,5)	(-12,3)	(-279,1)	(-11,3)	(261,1)	(-13,13)	(-99,2)	(-85,2)	(84,13)	(-5,1)	(-4,19)	(-14,10)	(-6,8)	(-2,77)	
L1D 18>	(-17,4)	(-16,10)	(-1,5)	(-13,6)	(-48,1)	(-42,3)	(-5,3)	(84,12)	(261,3)	(-85,4)	(-2,5)	(-6,7)	(-262,3)	(-14,16)	(-15,43)	(-3,71)	
L1D 19>	(-17,7)	(-18,7)	(-1,17)	(-15,45)	(-13,8)	(-3,18)	(84,32)	(-102,3)	(-262,1)	(-5,5)	(65,4)	(-4,94)	(-42,6)	(-2,7)	(-16,11)	(-101,8)	
L1D 20>	(-18,12)	(-19,21)	(-1,15)	(-20,111)	(-16,26)	(-15,25)	(84,22)	(-5,56)	(-7,3)	(-29,1)	(-6,25)	(-101,5)	(-4,8)	(169,2)	(-17,20)	(-2,10)	
L1D 21>	(-20,48)	(-19,117)	(-2,101)	(-1,23)	(58,19)	(-6,48)	(-15,72)	(5,4)	(-262,1)	(84,49)	(-18,62)	(-3,12)	(-42,9)	(-16,32)	(-17,88)	(-4,31)	
L1D 22>	(-21,34)	(-1,67)	(-2,24)	(-20,40)	(-4,10)	(-13,1)	(-19,61)	(-42,26)	(84,27)	(-6,6)	(-3,23)	(-18,62)	(-17,14)	(85,5)	(-16,16)	(-85,4)	
L1D 23>	(-22,15)	(-1,10)	(-2,118)	(-21,13)	(-3,14)	(-5,8)	(-7,1)	(-6,11)	(84,25)	(-132,1)	(-17,10)	(-20,50)	(-42,7)	(-4,34)	(-19,27)	(-18,24)	
L1D 24>	(-23,5)	(-1,94)	(-22,5)	(-3,13)	(33,1)	(26,3)	(-42,9)	(-5,6)	(84,9)	(-19,3)	(-21,19)	(-4,24)	(-18,1)	(-2,9)	(35,1)	(242,1)	
L1D 25>	(-11,1)	(85,1)	(59,1)	(-107,1)	(-24,2)	(39,1)	(84,11)	(-2,73)	(-13,1)	(-21,8)	(-42,9)	(-4,23)	(-23,3)	(-19,5)	(-22,4)	(-14,0)	
L1D 26>	(-1,7)	(-25,11)	(-24,4)	(-5,6)	(-41,1)	(84,18)	(-2,4)	(-42,15)	(-10,1)	(-3,107)	(-21,5)	(-23,29)	(2,4)	(24,2)	(-22,19)	(-6,2)	
L1D 27>	(-26,16)	(-1,3)	(-25,18)	(-23,22)	(-42,52)	(-4,97)	(-22,17)	(-24,6)	(82,2)	(-15,1)	(84,57)	(-262,2)	(-123,1)	(-2,6)	(-41,1)	(-3,5)	
L1D 28>	(-27,13)	(-1,81)	(2,6)	(-22,32)	(84,39)	(-42,37)	(-26,11)	(-24,16)	(31,6)	(22,8)	(-50,1)	(172,2)	(-5,10)	(-25,4)	(-92,3)	(-10,23)	
L1D 29>	(-1,19)	(-28,16)	(84,64)	(-42,45)	(12,1)	(-24,4)	(-81,3)	(-25,7)	(-6,5)	(-2,14)	(-26,4)	(-3,5)	(-9,2)	(8,3)	(6,3)	(-27,18)	
L1D 30>	(-29,43)	(-1,62)	(-3,9)	(84,25)	(2,11)	(-42,73)	(-41,1)	(-7,22)	(24,18)	(-2,18)	(-81,40)	(-27,23)	(37,4)	(-28,16)	(20,15)	(1,38)	
L1D 31>	(-30,16)	(84,50)	(-42,76)	(-56,22)	(-1,91)	(-27,3)	(19,13)	(-28,3)	(-41,5)	(-29,13)	(15,1)	(-82,12)	(-2,22)	(8,3)	(-3,4)	(-32,4)	
L1D 32>	(-29,48)	(231,1)	(-3,2)	(48,3)	(-31,4)	(-92,6)	(84,15)	(52,34)	(-1,7)	(-42,75)	(18,2)	(-121,78)	(-126,9)	(0,7)	(-294,8)	(-27,92)	
L1D 33>	(-1,83)	(84,22)	(-42,41)	(-56,6)	(285,1)	(-2,2)	(81,3)	(10,1)	(-41,1)	(-35,1)	(100,2)	(-34,1)	(-54,1)	(80,5)	(22,1)	(8,2)	
L1D 34>	(-56,25)	(2,2)	(84,92)	(4,2)	(-42,103)	(-7,1)	(-278,6)	(-41,7)	(-2,1)	(1,13)	(16,8)	(-15,11)	(-38,5)	(-8,2)	(260,9)	(20,1)	
L1D 35>	(-56,11)	(84,39)	(-42,80)	(4,7)	(6,7)	(-9,1)	(-33,18)	(2,5)	(15,10)	(-15,10)	(-8,8)	(-121,1)	(153,7)	(7,4)	(-39,1)	(-41,27)	
L1D 36>	(-56,46)	(84,56)	(22,1)	(2,8)	(-42,124)	(5,6)	(-35,4)	(-37,27)	(-110,8)	(6,27)	(-20,7)	(1,7)	(-40,4)	(-7,2)	(-32,8)	(14,10)	
L1D 37>	(-56,23)	(1,6)	(84,43)	(-42,73)	(5,5)	(4,15)	(8,19)	(-40,8)	(-13,14)	(10,14)	(-41,1)	(-35,2)	(6,11)	(-38,6)	(12,5)	(151,43)	
L1D 38>	(-56,21)	(84,42)	(11,1)	(-42,75)	(3,9)	(-12,10)	(2,1)	(30,22)	(-39,9)	(-41,11)	(-40,12)	(-57,4)	(-94,3)	(-43,8)	(-11,6)	(4,7)	
L1D 39>	(-56,24)	(-40,27)	(84,39)	(-42,95)	(3,21)	(2,24)	(-15,1)	(-43,23)	(1,3)	(-41,19)	(-11,21)	(-1,7)	(-7,3)	(-10,3)	(-125,3)	(-4,9)	
L1D 40>	(-41,6)	(-56,11)	(1,4)	(84,19)	(-43,13)	(-42,80)	(-1,3)	(-13,16)	(-138,1)	(-126,1)	(-47,6)	(-45,15)	(-46,28)	(-44,20)	(-9,6)	(-3,7)	
L1D 41>	(-139,2)	(-10,4)	(-42,116)	(-44,12)	(-56,27)	(-116,2)	(-9,7)	(-45,10)	(-46,7)	(-1,44)	(-11,5)	(84,12)	(-43,25)	(-111,8)	(-47,5)	(1,3)	
L1D 42>	(-56,47)	(1,81)	(84,52)	(-43,75)	(-127,2)	(-1,49)	(-42,54)	(-40,30)	(-46,14)	(-2,52)	(-38,12)	(-44,31)	(-140,20)	(-27,11)	(-41,40)	(-37,5)	
L1D 43>	(0,15)	(-56,17)	(1,26)	(8,21)	(6,28)	(-42,117)	(2,23)	(84,23)	(3,10)	(-43,13)	(5,24)	(-44,23)	(7,1)	(-40,42)	(-35,11)	(85,6)	
L1D 44>	(4,44)	(1,3)	(-1,17)	(-56,24)	(2,20)	(84,42)	(-42,77)	(-40,15)	(-43,12)	(3,20)	(-3,6)	(-45,1)	(5,8)	(-112,7)	(6,16)	(-2,9)	
L1D 45>	(-56,57)	(84,50)	(2,14)	(83,3)	(273,1)	(-42,123)	(-1,16)	(-44,7)	(-4,15)	(85,7)	(-3,22)	(4,8)	(-40,13)	(88,4)	(-41,6)	(-43,4)	
L1D 46>	(-56,31)	(6,15)	(84,89)	(2,27)	(271,1)	(-42,69)	(-5,2)	(-14,3)	(-140,3)	(-2,12)	(-6,9)	(83,14)	(-1,28)	(-4,5)	(-3,5)	(8,8)	
L1D 47>	(-56,37)	(1,15)	(85,1)	(84,78)	(-1,10)	(-34,6)	(-42,74)	(8,18)	(-4,5)	(-43,8)	(86,2)	(6,6)	(2,9)	(-2,21)	(83,7)	(-9,6)	
L1D 48>	(83,20)	(-56,16)	(84,115)	(-44,16)	(-1,38)	(3,1)	(-49,26)	(-42,80)	(-9,9)	(-7,4)	(-8,2)	(-2,14)	(81,6)	(6,6)	(73,3)	(-6,7)	
L1D 49>	(-56,14)	(-138,1)	(84,64)	(-6,2)	(83,15)	(-45,4)	(-2,15)	(-15,5)	(-42,28)	(-12,4)	(-1,16)	(-4,5)	(6,4)	(-43,6)	(4,1)	(-50,5)	
L1D 50>	(-56,6)	(-43,2)	(84,93)	(-49,5)	(-2,3)	(83,6)	(-42,22)	(-1,9)	(-118,1)	(-7,2)	(-6,3)	(-3,1)	(65,3)	(-51,1)	(-10,11)	(-24,1)	
L1D 51>	(-56,38)	(5,1)	(4,5)	(1,33)	(-42,110)	(-55,5)	(8,5)	(-48,2)	(2,8)	(-7,1)	(6,4)	(-2,2)	(-63,1)	(-57,3)	(-12,2)	(-8,4)	
L1D 52>	(-56,88)	(3,4)	(-10,72)	(-83,6)	(-43,8)	(-42,118)	(-51,3)	(-9,11)	(-53,35)	(265,1)	(-46,7)	(-50,41)	(62,3)	(-11,7)	(-52,100)	(5,3)	
L1D 53>	(2,4)	(-56,107)	(-42,102)	(-52,3)	(264,8)	(-12,3)	(-10,18)	(261,3)	(-54,9)	(1,3)	(-11,4)	(3,4)	(-1,10)	(-8,6)	(259,1)	(262,3)	
L1D 54>	(-15,4)	(-56,63)	(-2,3)	(-1,8)	(-10,1)	(-7,1)	(-53,111)	(-43,1)	(-42,29)	(-11,4)	(260,3)	(-51,1)	(-13,2)	(249,2)	(-9,2)	(-55,10)	
L1D 55>	(-56,93)	(-8,4)	(-59,3)	(-122,2)	(-3,8)	(224,1)	(-11,6)	(-58,8)	(-1,14)	(5,17)	(-12,5)	(-42,48)	(-2,7)	(-57,6)	(-4,4)	(-131,3)	
L1D 56>	(260,2)	(-11,7)	(7,21)	(-146,18)	(-42,66)	(-13,18)	(-12,5)	(-10,4)	(-56,15)	(-144,1)	(-2,12)	(-1,17)	(-123,4)	(-4,3)	(-55,3)	(1,3)	
L1D 57>	(2,6)	(-56,74)	(3,7)	(16,2)	(-47,2)	(-50,6)	(-49,6)	(-146,3)	(10,4)	(-1,6)	(13,2)	(-2,1)	(4,1)	(-55,2)	(-44,3)	(-42,26)	
L1D 58>	(-56,66)	(12,0)	(-15,2)	(-57,50)	(-42,22)	(26,0)	(-76,1)	(-39,2)	(-58,3)	(-59,1)	(1,15)	(10,0)	(-18,1)	(-2,1)	(-146,1)	(-51,1)	
L1D 59>	(-56,95)	(-1,16)	(25,8)	(-16,5)	(-42,29)	(-14,11)	(-33,2)	(8,9)	(57,1)	(-60,3)	(-81,2)	(-146,2)	(58,7)	(-58,2)	(6,2)	(-3,1)	
L1D 60>	(-56,89)	(-3,3)	(-42,39)	(-59,2)	(-17,3)	(-1,29)	(24,6)	(-60,43)	(-62,1)	(-57,2)	(-44,1)	(-8,1)	(-55,1)	(-110,1)	(-83,15)	(-123,12)	
L1D 61>	(-56,67)	(-62,18)	(-83,2)	(-17,2)	(-42,40)	(-12,0)	(-4,2)	(23,13)	(6,1)	(-2,1)	(-59,0)	(-137,0)	(-53,0)	(-143,1)	(-82,1)	(-60,2)	
L1D 62>	(-56,99)	(-1,2)	(2,4)	(-19,2)	(-42,41)	(22,8)	(-58,3)	(1,2)	(-18,1)	(-41,1)	(-57,2)	(-59,1)	(-13,1)	(-83,6)	(-2,7)	(-140,1)	
L1D 63>	(-56,91)	(-64,1)	(-20,1)	(-42,70)	(2,3)	(-1,3)	(1,46)	(-6,2)	(22,1)	(-62,3)	(-54,1)	(57,2)	(7,2)	(-3,1)	(21,27)	(-83,17)	
L1D 64>	(-56,127)	(-7,22)	(20,31)	(-42,23)	(-143,3)	(1,5)	(19,4)	(-21,8)	(-3,3)	(-63,5)	(21,11)	(-83,58)	(-55,1)	(8,13)	(-18,4)	(-1,36)	
L1D 65>	(-56,74)	(-8,5)	(-42,14)	(19,43)	(-81,3)	(56,2)	(-82,1)	(-83,27)	(-66,14)	(-22,3)	(57,3)	(-2,3)	(18,4)	(-1,3)	(-57,1)	(-80,7)	
L1D 66>	(-56,71)	(-9,13)	(18,25)	(2,3)	(-83,6)	(-63,1)	(53,1)	(-67,6)	(-92,13)	(-42,14)	(-23,1)	(-1,3)	(54,1)	(17,10)	(-22,3)	(-57,1)	
L1D 67>	(-56,119)	(1,5)	(-10,19)	(17,17)	(-83,55)	(44,4)	(-82,10)	(-42,24)	(-1,5)	(-75,1)	(2,1)	(16,4)	(-84,4)	(43,2)	(-68,10)	(52,1)	
L1D 68>	(-56,96)	(-42,20)	(-81,1)	(1,22)	(55,1)	(-69,18)	(-92,10)	(-106,1)	(16,29)	(-142,1)	(17,4)	(12,5)	(-83,35)	(-82,21)	(-73,3)	(-70,11)	
L1D 69>	(-56,71)	(-42,10)	(42,42)	(-82,5)	(2,3)	(-10,1)	(-12,12)	(-92,6)	(15,41)	(43,49)	(38,1)	(16,13)	(-70,72)	(46,3)	(-83,90)	(75,1)	
L1D 70>	(-56,56)	(1,5)	(-92,13)	(41,17)	(-83,113)	(-71,14)	(13,13)	(14,58)	(57,3)	(-13,7)	(40,20)	(-2,5)	(-106,1)	(-42,9)	(12,10)	(-72,6)	
L1D 71>	(-92,26)	(1,8)	(5,1)	(-14,9)	(-56,69)	(19,2)	(43,15)	(-72,23)	(13,57)	(47,5)	(-42,67)	(57,3)	(-116,11)	(-83,56)	(42,11)	(46,38)	
L1D 72>	(0,23)	(-28,3)	(-15,9)	(11,41)	(12,70)	(-1,7)	(-56,59)	(-71,31)	(1,13)	(-73,23)	(42,17)	(8,4)	(-42,20)	(3,1)	(-83,57)	(-92,4)	
L1D 73>	(-72,5)	(-56,20)	(-92,7)	(11,25)	(1,3)	(41,4)	(12,21)	(44,1)	(18,6)	(43,3)	(-74,27)	(10,1)	(2,12)	(-57,3)	(-42,127)	(-83,24)	
L1D 74>	(-56,45)	(1,30)	(-92,44)	(10,29)	(-73,7)	(9,26)	(43,29)	(-94,6)	(41,8)	(-75,70)	(-74,104)	(-57,9)	(-100,17)	(-17,5)	(-83,68)	(36,1)	
L1D 75>	(-92,37)	(-83,70)	(1,52)	(-74,24)	(41,10)	(43,7)	(-56,26)	(-73,10)	(-78,1)	(40,11)	(42,57)	(16,7)	(9,68)	(39,20)	(-94,7)	(10,21)	
L1D 76>	(-56,16)	(-83,65)	(-92,73)	(-75,60)	(1,41)	(8,82)	(2,12)	(-74,11)	(7,24)	(-80,1)	(4,24)	(-77,25)	(-57,6)	(-94,4)	(-78,11)	(43,3)	
L1D 77>	(6,50)	(-92,74)	(7,82)	(-76,48)	(-75,21)	(-72,1)	(1,34)	(-94,17)	(-78,13)	(-71,19)	(-83,57)	(9,28)	(5,19)	(-82,32)	(-79,23)	(-81,29)	
L1D 78>	(-92,45)	(-76,41)	(2,77)	(-77,38)	(1,50)	(6,55)	(-94,62)	(-56,8)	(-80,34)	(-83,35)	(5,85)	(-74,2)	(-73,124)	(8,22)	(-127,16)	(3,27)	
L1D 79>	(-92,88)	(-103,13)	(-78,24)	(5,27)	(-77,10)	(1,92)	(-80,10)	(2,15)	(-81,22)	(4,111)	(-82,11)	(-94,19)	(-1,1)	(-129,7)	(-83,8)	(-76,18)	
L1D 80>	(4,2)	(-118,2)	(-105,1)	(-81,87)	(-3,1)	(-75,1)	(-76,1)	(-1,1)	(-83,2)	(-94,2)	(17,1)	(-77,2)	(1,0)	(-85,1)	(40,0)	(-82,0)	
L1D 81>	(-131,1)	(1,0)	(64,0)	(6,0)	(-98,0)	(-85,2)	(-84,0)	(-82,75)	(-77,1)	(-122,0)	(3,0)	(-87,0)	(-92,0)	(-1,1)	(-94,2)	(2,1)	
L1D 82>	(-92,29)	(-97,1)	(-80,25)	(2,21)	(-94,21)	(-86,38)	(-85,111)	(-1,29)	(-2,59)	(-82,17)	(-93,9)	(-83,101)	(-99,10)	(-78,29)	(-84,43)	(-98,8)	
L1D 83>	(-92,28)	(-82,5)	(-84,46)	(-97,17)	(-133,8)	(-86,43)	(-94,19)	(-2,15)	(-85,87)	(-1,26)	(-93,16)	(1,12)	(-131,1)	(-100,20)	(-3,30)	(-90,4)	
L1D 84>	(-76,24)	(-78,13)	(-83,71)	(-86,44)	(-85,58)	(-134,23)	(-75,21)	(-98,11)	(42,1)	(-95,10)	(-80,24)	(-94,15)	(-100,9)	(8,10)	(-73,14)	(-71,16)	
L1D 85>	(-77,4)	(3,9)	(-92,8)	(-87,8)	(-95,7)	(1,11)	(5,4)	(40,1)	(-94,12)	(-86,8)	(-1,5)	(-83,69)	(-84,19)	(-133,6)	(-82,25)	(-134,11)	
L1D 86>	(-5,19)	(-92,30)	(-3,35)	(-85,28)	(-96,8)	(36,1)	(-94,53)	(55,4)	(1,12)	(-83,97)	(-89,3)	(-87,10)	(-88,26)	(-84,20)	(37,5)	(4,26)	
L1D 87>	(-83,89)	(-92,17)	(4,10)	(-6,5)	(-85,18)	(-3,13)	(-84,13)	(-90,16)	(-94,34)	(-133,5)	(55,4)	(-89,1)	(-101,8)	(-88,11)	(-1,10)	(-86,23)	
L1D 88>	(-84,4)	(-83,87)	(-92,9)	(-85,12)	(-81,6)	(-4,14)	(-94,30)	(32,10)	(3,1)	(-89,7)	(-1,12)	(-9,2)	(57,5)	(-97,16)	(55,1)	(-3,13)	
L1D 89>	(73,8)	(2,6)	(56,26)	(55,14)	(-92,63)	(-8,8)	(-85,68)	(-95,98)	(-96,16)	(-2,45)	(-94,125)	(4,8)	(-1,81)	(-112,5)	(43,1)	(52,3)	
L1D 90>	(-220,2)	(32,72)	(-88,1)	(-86,2)	(-10,14)	(-92,9)	(-85,4)	(-6,6)	(-91,1)	(-2,25)	(-94,18)	(-1,4)	(-93,5)	(-84,1)	(-90,6)	(-96,4)	
L1D 91>	(-201,8)	(-96,13)	(-94,22)	(4,85)	(-92,34)	(-85,7)	(-9,6)	(-219,1)	(-7,4)	(-3,13)	(-12,3)	(29,7)	(2,23)	(-10,6)	(-91,2)	(-93,14)	
L1D 92>	(-91,50)	(1,15)	(25,1)	(-92,37)	(-8,17)	(-94,71)	(-203,2)	(-3,7)	(-207,2)	(-1,13)	(-2,17)	(-93,8)	(-96,36)	(-85,11)	(-73,8)	(-222,10)	
L1D 93>	(-11,1)	(-95,7)	(-92,13)	(-5,14)	(-85,7)	(-84,3)	(-96,6)	(-9,11)	(16,2)	(-94,77)	(-1,12)	(-93,8)	(6,3)	(-2,8)	(-82,3)	(-203,3)	
L1D 94>	(-93,103)	(1,7)	(-92,27)	(-1,8)	(-94,45)	(32,31)	(41,2)	(-83,8)	(10,9)	(-206,7)	(-3,9)	(-4,12)	(-91,8)	(-10,12)	(-85,9)	(-221,1)	
L1D 95>	(-206,23)	(-1,10)	(-92,48)	(-71,14)	(-94,77)	(-222,5)	(-85,29)	(-212,10)	(-11,16)	(-204,23)	(8,9)	(-91,10)	(4,16)	(-87,16)	(44,1)	(-96,4)	
L1D 96>	(-1,17)	(-92,22)	(-206,9)	(-12,25)	(-94,82)	(-96,1)	(4,1)	(-97,11)	(-85,26)	(-10,13)	(-70,11)	(-2,3)	(-3,3)	(-11,15)	(42,2)	(-73,8)	
L1D 97>	(-13,14)	(-92,17)	(42,9)	(-85,28)	(-94,121)	(41,10)	(-95,9)	(-212,5)	(-12,4)	(40,1)	(-1,15)	(-4,2)	(-2,20)	(-96,14)	(-3,31)	(-91,4)	
L1D 98>	(-92,44)	(-85,21)	(-2,8)	(-94,115)	(-97,43)	(-14,31)	(-10,11)	(-1,21)	(-3,18)	(-86,5)	(-222,4)	(-13,27)	(-9,3)	(-95,9)	(18,1)	(41,4)	
L1D 99>	(-2,6)	(-92,38)	(-6,4)	(-15,37)	(-94,110)	(-14,3)	(-10,1)	(-219,3)	(-222,7)	(-3,8)	(-98,6)	(-96,8)	(-85,17)	(-1,14)	(-93,2)	(-9,5)	
L1D 100>	(-86,1)	(-92,6)	(-222,4)	(-99,64)	(-94,24)	(-6,1)	(-15,4)	(-3,1)	(-1,2)	(-220,1)	(-2,1)	(-95,1)	(-212,0)	(-16,6)	(-87,1)	(-85,8)	
L1D 101>	(-132,1)	(-100,32)	(-92,47)	(3,12)	(-8,4)	(-17,10)	(-6,8)	(-94,66)	(-85,9)	(-86,10)	(10,13)	(-16,8)	(-91,3)	(-96,3)	(-15,5)	(-1,9)	
L1D 102>	(-16,1)	(-9,7)	(-92,20)	(-18,15)	(-94,72)	(-7,8)	(11,1)	(-85,9)	(-13,1)	(-5,2)	(-17,6)	(-98,1)	(-86,3)	(-103,4)	(-1,5)	(-2,5)	
L1D 103>	(18,2)	(-92,30)	(-10,5)	(-18,13)	(-94,80)	(-8,5)	(-19,10)	(5,14)	(-2,20)	(-93,5)	(93,8)	(-104,3)	(-111,1)	(-83,3)	(-77,1)	(-95,6)	
L1D 104>	(-92,58)	(-11,10)	(-9,12)	(-94,91)	(-10,8)	(-20,13)	(-101,10)	(-19,16)	(-89,1)	(-1,6)	(-2,8)	(-105,3)	(-83,11)	(-4,4)	(-111,9)	(-103,5)	
L1D 105>	(-92,19)	(-20,6)	(-94,44)	(-85,4)	(-19,1)	(-106,8)	(-1,2)	(-10,2)	(-11,2)	(6,14)	(-102,16)	(-83,8)	(-42,75)	(4,14)	(-78,2)	(-21,4)	
L1D 106>	(-92,50)	(-13,13)	(-22,8)	(-11,8)	(-94,23)	(-12,9)	(-105,5)	(-86,6)	(-107,22)	(-20,11)	(-1,11)	(-104,4)	(-87,1)	(-21,6)	(-132,3)	(93,8)	
L1D 107>	(-15,31)	(92,10)	(-92,28)	(-14,7)	(-94,41)	(-12,13)	(-57,19)	(-84,5)	(-80,28)	(3,3)	(-22,2)	(-42,5)	(-81,14)	(-2,1)	(-23,14)	(-88,1)	
L1D 108>	(97,1)	(-92,20)	(-42,13)	(-13,2)	(-94,43)	(1,3)	(-23,23)	(-109,93)	(-3,3)	(-86,5)	(94,4)	(-83,17)	(-4,5)	(-105,9)	(-82,12)	(-24,4)	
L1D 109>	(-6,4)	(-92,37)	(1,3)	(-76,3)	(-42,57)	(-94,18)	(92,18)	(94,15)	(-15,1)	(-83,15)	(-110,52)	(-86,3)	(93,6)	(-16,2)	(96,9)	(2,35)	
L1D 110>	(-92,32)	(-17,4)	(-37,9)	(-42,114)	(-85,12)	(1,5)	(-25,19)	(-84,20)	(-87,6)	(-83,16)	(-1,14)	(-34,22)	(-94,1)	(-7,3)	(-111,118)	(92,4)	
L1D 111>	(-92,7)	(-88,1)	(92,18)	(-42,79)	(-94,7)	(-43,9)	(-86,5)	(-39,6)	(-1,5)	(-85,9)	(17,2)	(-112,5)	(-80,1)	(95,13)	(-84,14)	(94,21)	
L1D 112>	(-19,8)	(1,6)	(-42,109)	(-100,5)	(93,6)	(-94,11)	(2,6)	(6,1)	(-46,22)	(91,25)	(-113,35)	(5,12)	(-83,5)	(-62,2)	(-92,13)	(28,3)	
L1D 113>	(-92,17)	(1,8)	(-111,2)	(-42,63)	(-2,9)	(-114,18)	(94,3)	(-94,67)	(-1,11)	(-45,3)	(93,3)	(9,5)	(-83,12)	(-112,1)	(-63,10)	(95,9)	
L1D 114>	(-92,13)	(-81,97)	(94,7)	(1,3)	(-83,4)	(-100,89)	(-42,83)	(-115,28)	(2,12)	(91,10)	(-46,4)	(92,6)	(-21,4)	(-64,1)	(-44,4)	(3,18)	
L1D 115>	(-92,12)	(1,7)	(-82,118)	(96,11)	(-94,13)	(-42,126)	(-116,69)	(-1,45)	(92,8)	(-100,5)	(-56,25)	(94,1)	(-83,17)	(-43,9)	(-84,6)	(2,15)	
L1D 116>	(1,30)	(92,12)	(-42,109)	(-1,13)	(-83,7)	(-117,12)	(-43,24)	(94,1)	(-100,10)	(93,32)	(-56,11)	(10,5)	(95,16)	(11,3)	(-5,2)	(14,3)	
[...]
L1D 454>	(1,0)	(1,0)	(1,0)	(1,0)	(1,0)	(1,0)	(1,0)	(1,0)	(1,0)	(1,0)	(1,0)	(1,0)	(1,0)	(1,0)	(1,0)	(1,0)	
L1D 455>	(1,0)	(1,0)	(1,0)	(1,0)	(1,0)	(1,0)	(1,0)	(1,0)	(1,0)	(1,0)	(1,0)	(1,0)	(1,0)	(1,0)	(1,0)	(1,0)	
L1D 456>	(1,0)	(1,0)	(1,0)	(1,0)	(1,0)	(1,0)	(1,0)	(1,0)	(1,0)	(1,0)	(1,0)	(1,0)	(1,0)	(1,0)	(1,0)	(1,0)	
L1D 457>	(1,0)	(1,0)	(1,0)	(1,0)	(1,0)	(1,0)	(1,0)	(1,0)	(1,0)	(1,0)	(1,0)	(1,0)	(1,0)	(1,0)	(1,0)	(1,0)	
L1D 458>	(1,0)	(1,0)	(1,0)	(1,0)	(1,0)	(1,0)	(1,0)	(1,0)	(1,0)	(1,0)	(1,0)	(1,0)	(1,0)	(1,0)	(1,0)	(1,0)	
L1D 459>	(1,0)	(1,0)	(1,0)	(1,0)	(1,0)	(1,0)	(1,0)	(1,0)	(1,0)	(1,0)	(1,0)	(1,0)	(1,0)	(1,0)	(1,0)	(1,0)	
L1D 460>	(1,0)	(1,0)	(1,0)	(1,0)	(1,0)	(1,0)	(1,0)	(1,0)	(1,0)	(1,0)	(1,0)	(1,0)	(1,0)	(1,0)	(1,0)	(1,0)	
L1D 461>	(1,0)	(1,0)	(1,0)	(1,0)	(1,0)	(1,0)	(1,0)	(1,0)	(1,0)	(1,0)	(1,0)	(1,0)	(1,0)	(1,0)	(1,0)	(1,0)	
L1D 462>	(1,0)	(1,0)	(1,0)	(1,0)	(1,0)	(1,0)	(1,0)	(1,0)	(1,0)	(1,0)	(1,0)	(1,0)	(1,0)	(1,0)	(1,0)	(1,0)	
L1D 463>	(1,0)	(1,0)	(1,0)	(1,0)	(1,0)	(1,0)	(1,0)	(1,0)	(1,0)	(1,0)	(1,0)	(1,0)	(1,0)	(1,0)	(1,0)	(1,0)	
L1D 464>	(1,0)	(1,0)	(1,0)	(1,0)	(1,0)	(1,0)	(1,0)	(1,0)	(1,0)	(1,0)	(1,0)	(1,0)	(1,0)	(1,0)	(1,0)	(1,0)	
L1D 465>	(1,0)	(1,0)	(1,0)	(1,0)	(1,0)	(1,0)	(1,0)	(1,0)	(1,0)	(1,0)	(1,0)	(1,0)	(1,0)	(1,0)	(1,0)	(1,0)	
L1D 466>	(1,0)	(1,0)	(1,0)	(1,0)	(1,0)	(1,0)	(1,0)	(1,0)	(1,0)	(1,0)	(1,0)	(1,0)	(1,0)	(1,0)	(1,0)	(1,0)	
L1D 467>	(1,0)	(1,0)	(1,0)	(1,0)	(1,0)	(1,0)	(1,0)	(1,0)	(1,0)	(1,0)	(1,0)	(1,0)	(1,0)	(1,0)	(1,0)	(1,0)	
L1D 468>	(1,0)	(1,0)	(1,0)	(1,0)	(1,0)	(1,0)	(1,0)	(1,0)	(1,0)	(1,0)	(1,0)	(1,0)	(1,0)	(1,0)	(1,0)	(1,0)	
L1D 469>	(1,0)	(1,0)	(1,0)	(1,0)	(1,0)	(1,0)	(1,0)	(1,0)	(1,0)	(1,0)	(1,0)	(1,0)	(1,0)	(1,0)	(1,0)	(1,0)	
L1D 470>	(1,0)	(1,0)	(1,0)	(1,0)	(1,0)	(1,0)	(1,0)	(1,0)	(1,0)	(1,0)	(1,0)	(1,0)	(1,0)	(1,0)	(1,0)	(1,0)	
L1D 471>	(1,0)	(1,0)	(1,0)	(1,0)	(1,0)	(1,0)	(1,0)	(1,0)	(1,0)	(1,0)	(1,0)	(1,0)	(1,0)	(1,0)	(1,0)	(1,0)	
L1D 472>	(1,0)	(1,0)	(1,0)	(1,0)	(1,0)	(1,0)	(1,0)	(1,0)	(1,0)	(1,0)	(1,0)	(1,0)	(1,0)	(1,0)	(1,0)	(1,0)	
L1D 473>	(1,0)	(1,0)	(1,0)	(1,0)	(1,0)	(1,0)	(1,0)	(1,0)	(1,0)	(1,0)	(1,0)	(1,0)	(1,0)	(1,0)	(1,0)	(1,0)	
L1D 474>	(1,0)	(1,0)	(1,0)	(1,0)	(1,0)	(1,0)	(1,0)	(1,0)	(1,0)	(1,0)	(1,0)	(1,0)	(1,0)	(1,0)	(1,0)	(1,0)	
L1D 475>	(1,0)	(1,0)	(1,0)	(1,0)	(1,0)	(1,0)	(1,0)	(1,0)	(1,0)	(1,0)	(1,0)	(1,0)	(1,0)	(1,0)	(1,0)	(1,0)	
L1D 476>	(1,0)	(1,0)	(1,0)	(1,0)	(1,0)	(1,0)	(1,0)	(1,0)	(1,0)	(1,0)	(1,0)	(1,0)	(1,0)	(1,0)	(1,0)	(1,0)	
L1D 477>	(1,0)	(1,0)	(1,0)	(1,0)	(1,0)	(1,0)	(1,0)	(1,0)	(1,0)	(1,0)	(1,0)	(1,0)	(1,0)	(1,0)	(1,0)	(1,0)	
L1D 478>	(1,0)	(1,0)	(1,0)	(1,0)	(1,0)	(1,0)	(1,0)	(1,0)	(1,0)	(1,0)	(1,0)	(1,0)	(1,0)	(1,0)	(1,0)	(1,0)	
L1D 479>	(1,0)	(1,0)	(1,0)	(1,0)	(1,0)	(1,0)	(1,0)	(1,0)	(1,0)	(1,0)	(1,0)	(1,0)	(1,0)	(1,0)	(1,0)	(1,0)	
L1D 480>	(1,0)	(1,0)	(1,0)	(1,0)	(1,0)	(1,0)	(1,0)	(1,0)	(1,0)	(1,0)	(1,0)	(1,0)	(1,0)	(1,0)	(1,0)	(1,0)	
L1D 481>	(1,0)	(1,0)	(1,0)	(1,0)	(1,0)	(1,0)	(1,0)	(1,0)	(1,0)	(1,0)	(1,0)	(1,0)	(1,0)	(1,0)	(1,0)	(1,0)	
L1D 482>	(1,0)	(1,0)	(1,0)	(1,0)	(1,0)	(1,0)	(1,0)	(1,0)	(1,0)	(1,0)	(1,0)	(1,0)	(1,0)	(1,0)	(1,0)	(1,0)	
L1D 483>	(1,0)	(1,0)	(1,0)	(1,0)	(1,0)	(1,0)	(1,0)	(1,0)	(1,0)	(1,0)	(1,0)	(1,0)	(1,0)	(1,0)	(1,0)	(1,0)	
L1D 484>	(1,0)	(1,0)	(1,0)	(1,0)	(1,0)	(1,0)	(1,0)	(1,0)	(1,0)	(1,0)	(1,0)	(1,0)	(1,0)	(1,0)	(1,0)	(1,0)	
L1D 485>	(1,0)	(1,0)	(1,0)	(1,0)	(1,0)	(1,0)	(1,0)	(1,0)	(1,0)	(1,0)	(1,0)	(1,0)	(1,0)	(1,0)	(1,0)	(1,0)	
L1D 486>	(1,0)	(1,0)	(1,0)	(1,0)	(1,0)	(1,0)	(1,0)	(1,0)	(1,0)	(1,0)	(1,0)	(1,0)	(1,0)	(1,0)	(1,0)	(1,0)	
L1D 487>	(1,0)	(1,0)	(1,0)	(1,0)	(1,0)	(1,0)	(1,0)	(1,0)	(1,0)	(1,0)	(1,0)	(1,0)	(1,0)	(1,0)	(1,0)	(1,0)	
L1D 488>	(1,0)	(1,0)	(1,0)	(1,0)	(1,0)	(1,0)	(1,0)	(1,0)	(1,0)	(1,0)	(1,0)	(1,0)	(1,0)	(1,0)	(1,0)	(1,0)	
L1D 489>	(1,0)	(1,0)	(1,0)	(1,0)	(1,0)	(1,0)	(1,0)	(1,0)	(1,0)	(1,0)	(1,0)	(1,0)	(1,0)	(1,0)	(1,0)	(1,0)	
L1D 490>	(1,0)	(1,0)	(1,0)	(1,0)	(1,0)	(1,0)	(1,0)	(1,0)	(1,0)	(1,0)	(1,0)	(1,0)	(1,0)	(1,0)	(1,0)	(1,0)	
L1D 491>	(1,0)	(1,0)	(1,0)	(1,0)	(1,0)	(1,0)	(1,0)	(1,0)	(1,0)	(1,0)	(1,0)	(1,0)	(1,0)	(1,0)	(1,0)	(1,0)	
L1D 492>	(1,0)	(1,0)	(1,0)	(1,0)	(1,0)	(1,0)	(1,0)	(1,0)	(1,0)	(1,0)	(1,0)	(1,0)	(1,0)	(1,0)	(1,0)	(1,0)	
L1D 493>	(1,0)	(1,0)	(1,0)	(1,0)	(1,0)	(1,0)	(1,0)	(1,0)	(1,0)	(1,0)	(1,0)	(1,0)	(1,0)	(1,0)	(1,0)	(1,0)	
L1D 494>	(1,0)	(1,0)	(1,0)	(1,0)	(1,0)	(1,0)	(1,0)	(1,0)	(1,0)	(1,0)	(1,0)	(1,0)	(1,0)	(1,0)	(1,0)	(1,0)	
L1D 495>	(1,0)	(1,0)	(1,0)	(1,0)	(1,0)	(1,0)	(1,0)	(1,0)	(1,0)	(1,0)	(1,0)	(1,0)	(1,0)	(1,0)	(1,0)	(1,0)	
L1D 496>	(1,0)	(1,0)	(1,0)	(1,0)	(1,0)	(1,0)	(1,0)	(1,0)	(1,0)	(1,0)	(1,0)	(1,0)	(1,0)	(1,0)	(1,0)	(1,0)	
L1D 497>	(1,0)	(1,0)	(1,0)	(1,0)	(1,0)	(1,0)	(1,0)	(1,0)	(1,0)	(1,0)	(1,0)	(1,0)	(1,0)	(1,0)	(1,0)	(1,0)	
L1D 498>	(1,0)	(1,0)	(1,0)	(1,0)	(1,0)	(1,0)	(1,0)	(1,0)	(1,0)	(1,0)	(1,0)	(1,0)	(1,0)	(1,0)	(1,0)	(1,0)	
L1D 499>	(1,0)	(1,0)	(1,0)	(1,0)	(1,0)	(1,0)	(1,0)	(1,0)	(1,0)	(1,0)	(1,0)	(1,0)	(1,0)	(1,0)	(1,0)	(1,0)	
L1D 500>	(1,0)	(1,0)	(1,0)	(1,0)	(1,0)	(1,0)	(1,0)	(1,0)	(1,0)	(1,0)	(1,0)	(1,0)	(1,0)	(1,0)	(1,0)	(1,0)	
L1D 501>	(1,0)	(1,0)	(1,0)	(1,0)	(1,0)	(1,0)	(1,0)	(1,0)	(1,0)	(1,0)	(1,0)	(1,0)	(1,0)	(1,0)	(1,0)	(1,0)	
L1D 502>	(1,0)	(1,0)	(1,0)	(1,0)	(1,0)	(1,0)	(1,0)	(1,0)	(1,0)	(1,0)	(1,0)	(1,0)	(1,0)	(1,0)	(1,0)	(1,0)	
L1D 503>	(1,0)	(1,0)	(1,0)	(1,0)	(1,0)	(1,0)	(1,0)	(1,0)	(1,0)	(1,0)	(1,0)	(1,0)	(1,0)	(1,0)	(1,0)	(1,0)	
L1D 504>	(1,0)	(1,0)	(1,0)	(1,0)	(1,0)	(1,0)	(1,0)	(1,0)	(1,0)	(1,0)	(1,0)	(1,0)	(1,0)	(1,0)	(1,0)	(1,0)	
L1D 505>	(1,0)	(1,0)	(1,0)	(1,0)	(1,0)	(1,0)	(1,0)	(1,0)	(1,0)	(1,0)	(1,0)	(1,0)	(1,0)	(1,0)	(1,0)	(1,0)	
L1D 506>	(1,0)	(1,0)	(1,0)	(1,0)	(1,0)	(1,0)	(1,0)	(1,0)	(1,0)	(1,0)	(1,0)	(1,0)	(1,0)	(1,0)	(1,0)	(1,0)	
L1D 507>	(1,0)	(1,0)	(1,0)	(1,0)	(1,0)	(1,0)	(1,0)	(1,0)	(1,0)	(1,0)	(1,0)	(1,0)	(1,0)	(1,0)	(1,0)	(1,0)	
L1D 508>	(1,0)	(1,0)	(1,0)	(1,0)	(1,0)	(1,0)	(1,0)	(1,0)	(1,0)	(1,0)	(1,0)	(1,0)	(1,0)	(1,0)	(1,0)	(1,0)	
L1D 509>	(1,0)	(1,0)	(1,0)	(1,0)	(1,0)	(1,0)	(1,0)	(1,0)	(1,0)	(1,0)	(1,0)	(1,0)	(1,0)	(1,0)	(1,0)	(1,0)	
L1D 510>	(1,0)	(1,0)	(1,0)	(1,0)	(1,0)	(1,0)	(1,0)	(1,0)	(1,0)	(1,0)	(1,0)	(1,0)	(1,0)	(1,0)	(1,0)	(1,0)	
L1D 511>	(1,0)	(1,0)	(1,0)	(1,0)	(1,0)	(1,0)	(1,0)	(1,0)	(1,0)	(1,0)	(1,0)	(1,0)	(1,0)	(1,0)	(1,0)	(1,0)	

L2C -64>	(1,20)	(-2,2)	(29,1)	(5,1)	(-1,1)	(7,4)	(2,2)	(-16,1)	(-23,2)	(-13,1)	(11,1)	(-6,1)	(15,2)	(-3,1)	(10,2)	(6,7)	
L2C -63>	(1,0)	(1,0)	(1,0)	(1,0)	(1,0)	(1,0)	(1,0)	(1,0)	(1,0)	(1,0)	(1,0)	(1,0)	(1,0)	(1,0)	(1,0)	(1,0)	
L2C -62>	(1,0)	(1,0)	(1,0)	(1,0)	(1,0)	(1,0)	(1,0)	(1,0)	(1,0)	(1,0)	(1,0)	(1,0)	(1,0)	(1,0)	(1,0)	(1,0)	
L2C -61>	(1,0)	(1,0)	(1,0)	(1,0)	(1,0)	(1,0)	(1,0)	(1,0)	(1,0)	(1,0)	(1,0)	(1,0)	(1,0)	(1,0)	(1,0)	(1,0)	
L2C -60>	(1,0)	(1,0)	(1,0)	(1,0)	(1,0)	(1,0)	(1,0)	(1,0)	(1,0)	(1,0)	(1,0)	(1,0)	(1,0)	(1,0)	(1,0)	(1,0)	
L2C -59>	(1,0)	(1,0)	(1,0)	(1,0)	(1,0)	(1,0)	(1,0)	(1,0)	(1,0)	(1,0)	(1,0)	(1,0)	(1,0)	(1,0)	(1,0)	(1,0)	
L2C -58>	(1,0)	(1,0)	(1,0)	(1,0)	(1,0)	(1,0)	(1,0)	(1,0)	(1,0)	(1,0)	(1,0)	(1,0)	(1,0)	(1,0)	(1,0)	(1,0)	
L2C -57>	(1,0)	(1,0)	(1,0)	(1,0)	(1,0)	(1,0)	(1,0)	(1,0)	(1,0)	(1,0)	(1,0)	(1,0)	(1,0)	(1,0)	(1,0)	(1,0)	
L2C -56>	(1,0)	(1,0)	(1,0)	(1,0)	(1,0)	(1,0)	(1,0)	(1,0)	(1,0)	(1,0)	(1,0)	(1,0)	(1,0)	(1,0)	(1,0)	(1,0)	
L2C -55>	(1,1)	(1,0)	(1,0)	(1,0)	(1,0)	(1,0)	(1,0)	(1,0)	(1,0)	(1,0)	(1,0)	(1,0)	(1,0)	(1,0)	(1,0)	(1,0)	
L2C -54>	(1,1)	(1,0)	(1,0)	(1,0)	(1,0)	(1,0)	(1,0)	(1,0)	(1,0)	(1,0)	(1,0)	(1,0)	(1,0)	(1,0)	(1,0)	(1,0)	
L2C -53>	(1,0)	(1,0)	(1,0)	(1,0)	(1,0)	(1,0)	(1,0)	(1,0)	(1,0)	(1,0)	(1,0)	(1,0)	(1,0)	(1,0)	(1,0)	(1,0)	
L2C -52>	(1,0)	(1,0)	(1,0)	(1,0)	(1,0)	(1,0)	(1,0)	(1,0)	(1,0)	(1,0)	(1,0)	(1,0)	(1,0)	(1,0)	(1,0)	(1,0)	
L2C -51>	(1,0)	(1,0)	(1,0)	(1,0)	(1,0)	(1,0)	(1,0)	(1,0)	(1,0)	(1,0)	(1,0)	(1,0)	(1,0)	(1,0)	(1,0)	(1,0)	
L2C -50>	(1,0)	(1,0)	(1,0)	(1,0)	(1,0)	(1,0)	(1,0)	(1,0)	(1,0)	(1,0)	(1,0)	(1,0)	(1,0)	(1,0)	(1,0)	(1,0)	
L2C -49>	(1,0)	(1,0)	(1,0)	(1,0)	(1,0)	(1,0)	(1,0)	(1,0)	(1,0)	(1,0)	(1,0)	(1,0)	(1,0)	(1,0)	(1,0)	(1,0)	
L2C -48>	(1,0)	(1,0)	(1,0)	(1,0)	(1,0)	(1,0)	(1,0)	(1,0)	(1,0)	(1,0)	(1,0)	(1,0)	(1,0)	(1,0)	(1,0)	(1,0)	
L2C -47>	(1,0)	(1,0)	(1,0)	(1,0)	(1,0)	(1,0)	(1,0)	(1,0)	(1,0)	(1,0)	(1,0)	(1,0)	(1,0)	(1,0)	(1,0)	(1,0)	
L2C -46>	(1,1)	(1,0)	(1,0)	(1,0)	(1,0)	(1,0)	(1,0)	(1,0)	(1,0)	(1,0)	(1,0)	(1,0)	(1,0)	(1,0)	(1,0)	(1,0)	
L2C -45>	(1,0)	(1,0)	(1,0)	(1,0)	(1,0)	(1,0)	(1,0)	(1,0)	(1,0)	(1,0)	(1,0)	(1,0)	(1,0)	(1,0)	(1,0)	(1,0)	
L2C -44>	(1,0)	(1,0)	(1,0)	(1,0)	(1,0)	(1,0)	(1,0)	(1,0)	(1,0)	(1,0)	(1,0)	(1,0)	(1,0)	(1,0)	(1,0)	(1,0)	
L2C -43>	(1,0)	(1,0)	(1,0)	(1,0)	(1,0)	(1,0)	(1,0)	(1,0)	(1,0)	(1,0)	(1,0)	(1,0)	(1,0)	(1,0)	(1,0)	(1,0)	
L2C -42>	(28,1)	(1,0)	(1,0)	(1,0)	(1,0)	(1,0)	(1,0)	(1,0)	(1,0)	(1,0)	(1,0)	(1,0)	(1,0)	(1,0)	(1,0)	(1,0)	
L2C -41>	(1,0)	(1,0)	(1,0)	(1,0)	(1,0)	(1,0)	(1,0)	(1,0)	(1,0)	(1,0)	(1,0)	(1,0)	(1,0)	(1,0)	(1,0)	(1,0)	
L2C -40>	(29,1)	(1,0)	(1,0)	(1,0)	(1,0)	(1,0)	(1,0)	(1,0)	(1,0)	(1,0)	(1,0)	(1,0)	(1,0)	(1,0)	(1,0)	(1,0)	
L2C -39>	(1,0)	(1,0)	(1,0)	(1,0)	(1,0)	(1,0)	(1,0)	(1,0)	(1,0)	(1,0)	(1,0)	(1,0)	(1,0)	(1,0)	(1,0)	(1,0)	
L2C -38>	(1,0)	(1,0)	(1,0)	(1,0)	(1,0)	(1,0)	(1,0)	(1,0)	(1,0)	(1,0)	(1,0)	(1,0)	(1,0)	(1,0)	(1,0)	(1,0)	
L2C -37>	(1,0)	(1,0)	(1,0)	(1,0)	(1,0)	(1,0)	(1,0)	(1,0)	(1,0)	(1,0)	(1,0)	(1,0)	(1,0)	(1,0)	(1,0)	(1,0)	
L2C -36>	(1,0)	(1,0)	(1,0)	(1,0)	(1,0)	(1,0)	(1,0)	(1,0)	(1,0)	(1,0)	(1,0)	(1,0)	(1,0)	(1,0)	(1,0)	(1,0)	
L2C -35>	(1,0)	(1,0)	(1,0)	(1,0)	(1,0)	(1,0)	(1,0)	(1,0)	(1,0)	(1,0)	(1,0)	(1,0)	(1,0)	(1,0)	(1,0)	(1,0)	
L2C -34>	(-5,1)	(1,0)	(1,0)	(1,0)	(1,0)	(1,0)	(1,0)	(1,0)	(1,0)	(1,0)	(1,0)	(1,0)	(1,0)	(1,0)	(1,0)	(1,0)	
L2C -33>	(1,0)	(1,0)	(1,0)	(1,0)	(1,0)	(1,0)	(1,0)	(1,0)	(1,0)	(1,0)	(1,0)	(1,0)	(1,0)	(1,0)	(1,0)	(1,0)	
L2C -32>	(11,1)	(1,0)	(1,0)	(1,0)	(1,0)	(1,0)	(1,0)	(1,0)	(1,0)	(1,0)	(1,0)	(1,0)	(1,0)	(1,0)	(1,0)	(1,0)	
L2C -31>	(1,1)	(1,0)	(1,0)	(1,0)	(1,0)	(1,0)	(1,0)	(1,0)	(1,0)	(1,0)	(1,0)	(1,0)	(1,0)	(1,0)	(1,0)	(1,0)	
L2C -30>	(1,0)	(1,0)	(1,0)	(1,0)	(1,0)	(1,0)	(1,0)	(1,0)	(1,0)	(1,0)	(1,0)	(1,0)	(1,0)	(1,0)	(1,0)	(1,0)	
L2C -29>	(1,0)	(1,0)	(1,0)	(1,0)	(1,0)	(1,0)	(1,0)	(1,0)	(1,0)	(1,0)	(1,0)	(1,0)	(1,0)	(1,0)	(1,0)	(1,0)	
L2C -28>	(1,1)	(1,0)	(1,0)	(1,0)	(1,0)	(1,0)	(1,0)	(1,0)	(1,0)	(1,0)	(1,0)	(1,0)	(1,0)	(1,0)	(1,0)	(1,0)	
L2C -27>	(1,1)	(1,0)	(1,0)	(1,0)	(1,0)	(1,0)	(1,0)	(1,0)	(1,0)	(1,0)	(1,0)	(1,0)	(1,0)	(1,0)	(1,0)	(1,0)	
L2C -26>	(27,1)	(-1,1)	(1,0)	(1,0)	(1,0)	(1,0)	(1,0)	(1,0)	(1,0)	(1,0)	(1,0)	(1,0)	(1,0)	(1,0)	(1,0)	(1,0)	
L2C -25>	(1,0)	(1,0)	(1,0)	(1,0)	(1,0)	(1,0)	(1,0)	(1,0)	(1,0)	(1,0)	(1,0)	(1,0)	(1,0)	(1,0)	(1,0)	(1,0)	
L2C -24>	(1,1)	(1,0)	(1,0)	(1,0)	(1,0)	(1,0)	(1,0)	(1,0)	(1,0)	(1,0)	(1,0)	(1,0)	(1,0)	(1,0)	(1,0)	(1,0)	
L2C -23>	(1,1)	(-1,2)	(1,0)	(1,0)	(1,0)	(1,0)	(1,0)	(1,0)	(1,0)	(1,0)	(1,0)	(1,0)	(1,0)	(1,0)	(1,0)	(1,0)	
L2C -22>	(1,1)	(1,0)	(1,0)	(1,0)	(1,0)	(1,0)	(1,0)	(1,0)	(1,0)	(1,0)	(1,0)	(1,0)	(1,0)	(1,0)	(1,0)	(1,0)	
L2C -21>	(1,1)	(1,0)	(1,0)	(1,0)	(1,0)	(1,0)	(1,0)	(1,0)	(1,0)	(1,0)	(1,0)	(1,0)	(1,0)	(1,0)	(1,0)	(1,0)	
L2C -20>	(1,0)	(1,0)	(1,0)	(1,0)	(1,0)	(1,0)	(1,0)	(1,0)	(1,0)	(1,0)	(1,0)	(1,0)	(1,0)	(1,0)	(1,0)	(1,0)	
L2C -19>	(25,1)	(1,0)	(1,0)	(1,0)	(1,0)	(1,0)	(1,0)	(1,0)	(1,0)	(1,0)	(1,0)	(1,0)	(1,0)	(1,0)	(1,0)	(1,0)	
L2C -18>	(1,1)	(1,0)	(1,0)	(1,0)	(1,0)	(1,0)	(1,0)	(1,0)	(1,0)	(1,0)	(1,0)	(1,0)	(1,0)	(1,0)	(1,0)	(1,0)	
L2C -17>	(9,1)	(1,0)	(1,0)	(1,0)	(1,0)	(1,0)	(1,0)	(1,0)	(1,0)	(1,0)	(1,0)	(1,0)	(1,0)	(1,0)	(1,0)	(1,0)	
L2C -16>	(-1,1)	(1,0)	(1,0)	(1,0)	(1,0)	(1,0)	(1,0)	(1,0)	(1,0)	(1,0)	(1,0)	(1,0)	(1,0)	(1,0)	(1,0)	(1,0)	
L2C -15>	(1,0)	(1,0)	(1,0)	(1,0)	(1,0)	(1,0)	(1,0)	(1,0)	(1,0)	(1,0)	(1,0)	(1,0)	(1,0)	(1,0)	(1,0)	(1,0)	
L2C -14>	(4,1)	(1,2)	(1,0)	(1,0)	(1,0)	(1,0)	(1,0)	(1,0)	(1,0)	(1,0)	(1,0)	(1,0)	(1,0)	(1,0)	(1,0)	(1,0)	
L2C -13>	(14,1)	(1,0)	(1,0)	(1,0)	(1,0)	(1,0)	(1,0)	(1,0)	(1,0)	(1,0)	(1,0)	(1,0)	(1,0)	(1,0)	(1,0)	(1,0)	
L2C -12>	(2,1)	(1,0)	(1,0)	(1,0)	(1,0)	(1,0)	(1,0)	(1,0)	(1,0)	(1,0)	(1,0)	(1,0)	(1,0)	(1,0)	(1,0)	(1,0)	
L2C -11>	(1,0)	(1,0)	(1,0)	(1,0)	(1,0)	(1,0)	(1,0)	(1,0)	(1,0)	(1,0)	(1,0)	(1,0)	(1,0)	(1,0)	(1,0)	(1,0)	
L2C -10>	(1,1)	(1,0)	(1,0)	(1,0)	(1,0)	(1,0)	(1,0)	(1,0)	(1,0)	(1,0)	(1,0)	(1,0)	(1,0)	(1,0)	(1,0)	(1,0)	
L2C -9>	(1,0)	(1,0)	(1,0)	(1,0)	(1,0)	(1,0)	(1,0)	(1,0)	(1,0)	(1,0)	(1,0)	(1,0)	(1,0)	(1,0)	(1,0)	(1,0)	
L2C -8>	(9,1)	(1,1)	(-14,1)	(-1,1)	(5,1)	(2,1)	(1,0)	(1,0)	(1,0)	(1,0)	(1,0)	(1,0)	(1,0)	(1,0)	(1,0)	(1,0)	
L2C -7>	(1,3)	(-32,1)	(1,0)	(1,0)	(1,0)	(1,0)	(1,0)	(1,0)	(1,0)	(1,0)	(1,0)	(1,0)	(1,0)	(1,0)	(1,0)	(1,0)	
L2C -6>	(7,1)	(-1,1)	(1,1)	(1,0)	(1,0)	(1,0)	(1,0)	(1,0)	(1,0)	(1,0)	(1,0)	(1,0)	(1,0)	(1,0)	(1,0)	(1,0)	
L2C -5>	(-7,1)	(2,1)	(1,0)	(1,0)	(1,0)	(1,0)	(1,0)	(1,0)	(1,0)	(1,0)	(1,0)	(1,0)	(1,0)	(1,0)	(1,0)	(1,0)	
L2C -4>	(1,0)	(1,0)	(1,0)	(1,0)	(1,0)	(1,0)	(1,0)	(1,0)	(1,0)	(1,0)	(1,0)	(1,0)	(1,0)	(1,0)	(1,0)	(1,0)	
L2C -3>	(4,1)	(2,1)	(1,0)	(1,0)	(1,0)	(1,0)	(1,0)	(1,0)	(1,0)	(1,0)	(1,0)	(1,0)	(1,0)	(1,0)	(1,0)	(1,0)	
L2C -2>	(-3,1)	(-7,1)	(1,1)	(1,0)	(1,0)	(1,0)	(1,0)	(1,0)	(1,0)	(1,0)	(1,0)	(1,0)	(1,0)	(1,0)	(1,0)	(1,0)	
L2C -1>	(-1,17)	(23,1)	(2,1)	(26,1)	(5,2)	(-26,1)	(38,1)	(-2,1)	(-17,1)	(8,1)	(-6,1)	(1,0)	(1,0)	(1,0)	(1,0)	(1,0)	
L2C 0>	(1,0)	(1,0)	(1,0)	(1,0)	(1,0)	(1,0)	(1,0)	(1,0)	(1,0)	(1,0)	(1,0)	(1,0)	(1,0)	(1,0)	(1,0)	(1,0)	
L2C 1>	(1,195)	(-8,4)	(4,2)	(9,2)	(47,2)	(-7,2)	(2,6)	(3,3)	(5,3)	(6,3)	(-27,2)	(-6,1)	(-46,1)	(-3,1)	(20,1)	(13,1)	
L2C 2>	(-7,1)	(-23,1)	(1,6)	(-10,1)	(2,2)	(-1,2)	(-3,2)	(3,1)	(10,1)	(1,0)	(1,0)	(1,0)	(1,0)	(1,0)	(1,0)	(1,0)	
L2C 3>	(-2,1)	(50,1)	(-5,1)	(1,0)	(1,0)	(1,0)	(1,0)	(1,0)	(1,0)	(1,0)	(1,0)	(1,0)	(1,0)	(1,0)	(1,0)	(1,0)	
L2C 4>	(-2,1)	(2,1)	(5,1)	(1,2)	(-1,1)	(1,0)	(1,0)	(1,0)	(1,0)	(1,0)	(1,0)	(1,0)	(1,0)	(1,0)	(1,0)	(1,0)	
L2C 5>	(7,1)	(-1,2)	(1,3)	(-8,1)	(-34,1)	(1,0)	(1,0)	(1,0)	(1,0)	(1,0)	(1,0)	(1,0)	(1,0)	(1,0)	(1,0)	(1,0)	
L2C 6>	(-26,1)	(6,3)	(1,2)	(7,1)	(1,0)	(1,0)	(1,0)	(1,0)	(1,0)	(1,0)	(1,0)	(1,0)	(1,0)	(1,0)	(1,0)	(1,0)	
L2C 7>	(-54,1)	(1,1)	(-11,1)	(1,0)	(1,0)	(1,0)	(1,0)	(1,0)	(1,0)	(1,0)	(1,0)	(1,0)	(1,0)	(1,0)	(1,0)	(1,0)	
L2C 8>	(-31,1)	(1,1)	(1,0)	(1,0)	(1,0)	(1,0)	(1,0)	(1,0)	(1,0)	(1,0)	(1,0)	(1,0)	(1,0)	(1,0)	(1,0)	(1,0)	
L2C 9>	(-8,2)	(1,1)	(1,0)	(1,0)	(1,0)	(1,0)	(1,0)	(1,0)	(1,0)	(1,0)	(1,0)	(1,0)	(1,0)	(1,0)	(1,0)	(1,0)	
L2C 10>	(2,1)	(1,2)	(-1,1)	(1,0)	(1,0)	(1,0)	(1,0)	(1,0)	(1,0)	(1,0)	(1,0)	(1,0)	(1,0)	(1,0)	(1,0)	(1,0)	
L2C 11>	(2,1)	(1,1)	(1,0)	(1,0)	(1,0)	(1,0)	(1,0)	(1,0)	(1,0)	(1,0)	(1,0)	(1,0)	(1,0)	(1,0)	(1,0)	(1,0)	
L2C 12>	(1,1)	(1,0)	(1,0)	(1,0)	(1,0)	(1,0)	(1,0)	(1,0)	(1,0)	(1,0)	(1,0)	(1,0)	(1,0)	(1,0)	(1,0)	(1,0)	
L2C 13>	(2,1)	(1,0)	(1,0)	(1,0)	(1,0)	(1,0)	(1,0)	(1,0)	(1,0)	(1,0)	(1,0)	(1,0)	(1,0)	(1,0)	(1,0)	(1,0)	
L2C 14>	(4,1)	(1,0)	(1,0)	(1,0)	(1,0)	(1,0)	(1,0)	(1,0)	(1,0)	(1,0)	(1,0)	(1,0)	(1,0)	(1,0)	(1,0)	(1,0)	
L2C 15>	(1,1)	(1,0)	(1,0)	(1,0)	(1,0)	(1,0)	(1,0)	(1,0)	(1,0)	(1,0)	(1,0)	(1,0)	(1,0)	(1,0)	(1,0)	(1,0)	
L2C 16>	(1,0)	(1,0)	(1,0)	(1,0)	(1,0)	(1,0)	(1,0)	(1,0)	(1,0)	(1,0)	(1,0)	(1,0)	(1,0)	(1,0)	(1,0)	(1,0)	
L2C 17>	(1,1)	(1,0)	(1,0)	(1,0)	(1,0)	(1,0)	(1,0)	(1,0)	(1,0)	(1,0)	(1,0)	(1,0)	(1,0)	(1,0)	(1,0)	(1,0)	
L2C 18>	(1,0)	(1,0)	(1,0)	(1,0)	(1,0)	(1,0)	(1,0)	(1,0)	(1,0)	(1,0)	(1,0)	(1,0)	(1,0)	(1,0)	(1,0)	(1,0)	
L2C 19>	(1,3)	(1,0)	(1,0)	(1,0)	(1,0)	(1,0)	(1,0)	(1,0)	(1,0)	(1,0)	(1,0)	(1,0)	(1,0)	(1,0)	(1,0)	(1,0)	
L2C 20>	(-19,1)	(1,0)	(1,0)	(1,0)	(1,0)	(1,0)	(1,0)	(1,0)	(1,0)	(1,0)	(1,0)	(1,0)	(1,0)	(1,0)	(1,0)	(1,0)	
L2C 21>	(1,0)	(1,0)	(1,0)	(1,0)	(1,0)	(1,0)	(1,0)	(1,0)	(1,0)	(1,0)	(1,0)	(1,0)	(1,0)	(1,0)	(1,0)	(1,0)	
L2C 22>	(1,0)	(1,0)	(1,0)	(1,0)	(1,0)	(1,0)	(1,0)	(1,0)	(1,0)	(1,0)	(1,0)	(1,0)	(1,0)	(1,0)	(1,0)	(1,0)	
L2C 23>	(-2,1)	(1,0)	(1,0)	(1,0)	(1,0)	(1,0)	(1,0)	(1,0)	(1,0)	(1,0)	(1,0)	(1,0)	(1,0)	(1,0)	(1,0)	(1,0)	
L2C 24>	(1,0)	(1,0)	(1,0)	(1,0)	(1,0)	(1,0)	(1,0)	(1,0)	(1,0)	(1,0)	(1,0)	(1,0)	(1,0)	(1,0)	(1,0)	(1,0)	
L2C 25>	(-24,1)	(1,0)	(1,0)	(1,0)	(1,0)	(1,0)	(1,0)	(1,0)	(1,0)	(1,0)	(1,0)	(1,0)	(1,0)	(1,0)	(1,0)	(1,0)	
L2C 26>	(-1,1)	(1,0)	(1,0)	(1,0)	(1,0)	(1,0)	(1,0)	(1,0)	(1,0)	(1,0)	(1,0)	(1,0)	(1,0)	(1,0)	(1,0)	(1,0)	
L2C 27>	(-14,1)	(1,0)	(1,0)	(1,0)	(1,0)	(1,0)	(1,0)	(1,0)	(1,0)	(1,0)	(1,0)	(1,0)	(1,0)	(1,0)	(1,0)	(1,0)	
L2C 28>	(-14,1)	(1,0)	(1,0)	(1,0)	(1,0)	(1,0)	(1,0)	(1,0)	(1,0)	(1,0)	(1,0)	(1,0)	(1,0)	(1,0)	(1,0)	(1,0)	
L2C 29>	(-1,1)	(1,1)	(1,0)	(1,0)	(1,0)	(1,0)	(1,0)	(1,0)	(1,0)	(1,0)	(1,0)	(1,0)	(1,0)	(1,0)	(1,0)	(1,0)	
L2C 30>	(1,0)	(1,0)	(1,0)	(1,0)	(1,0)	(1,0)	(1,0)	(1,0)	(1,0)	(1,0)	(1,0)	(1,0)	(1,0)	(1,0)	(1,0)	(1,0)	
L2C 31>	(1,0)	(1,0)	(1,0)	(1,0)	(1,0)	(1,0)	(1,0)	(1,0)	(1,0)	(1,0)	(1,0)	(1,0)	(1,0)	(1,0)	(1,0)	(1,0)	
L2C 32>	(2,1)	(1,0)	(1,0)	(1,0)	(1,0)	(1,0)	(1,0)	(1,0)	(1,0)	(1,0)	(1,0)	(1,0)	(1,0)	(1,0)	(1,0)	(1,0)	
L2C 33>	(1,0)	(1,0)	(1,0)	(1,0)	(1,0)	(1,0)	(1,0)	(1,0)	(1,0)	(1,0)	(1,0)	(1,0)	(1,0)	(1,0)	(1,0)	(1,0)	
L2C 34>	(-42,1)	(1,0)	(1,0)	(1,0)	(1,0)	(1,0)	(1,0)	(1,0)	(1,0)	(1,0)	(1,0)	(1,0)	(1,0)	(1,0)	(1,0)	(1,0)	
L2C 35>	(1,0)	(1,0)	(1,0)	(1,0)	(1,0)	(1,0)	(1,0)	(1,0)	(1,0)	(1,0)	(1,0)	(1,0)	(1,0)	(1,0)	(1,0)	(1,0)	
L2C 36>	(1,0)	(1,0)	(1,0)	(1,0)	(1,0)	(1,0)	(1,0)	(1,0)	(1,0)	(1,0)	(1,0)	(1,0)	(1,0)	(1,0)	(1,0)	(1,0)	
L2C 37>	(1,0)	(1,0)	(1,0)	(1,0)	(1,0)	(1,0)	(1,0)	(1,0)	(1,0)	(1,0)	(1,0)	(1,0)	(1,0)	(1,0)	(1,0)	(1,0)	
L2C 38>	(1,1)	(1,0)	(1,0)	(1,0)	(1,0)	(1,0)	(1,0)	(1,0)	(1,0)	(1,0)	(1,0)	(1,0)	(1,0)	(1,0)	(1,0)	(1,0)	
L2C 39>	(1,0)	(1,0)	(1,0)	(1,0)	(1,0)	(1,0)	(1,0)	(1,0)	(1,0)	(1,0)	(1,0)	(1,0)	(1,0)	(1,0)	(1,0)	(1,0)	
L2C 40>	(1,0)	(1,0)	(1,0)	(1,0)	(1,0)	(1,0)	(1,0)	(1,0)	(1,0)	(1,0)	(1,0)	(1,0)	(1,0)	(1,0)	(1,0)	(1,0)	
L2C 41>	(1,0)	(1,0)	(1,0)	(1,0)	(1,0)	(1,0)	(1,0)	(1,0)	(1,0)	(1,0)	(1,0)	(1,0)	(1,0)	(1,0)	(1,0)	(1,0)	
L2C 42>	(1,0)	(1,0)	(1,0)	(1,0)	(1,0)	(1,0)	(1,0)	(1,0)	(1,0)	(1,0)	(1,0)	(1,0)	(1,0)	(1,0)	(1,0)	(1,0)	
L2C 43>	(1,0)	(1,0)	(1,0)	(1,0)	(1,0)	(1,0)	(1,0)	(1,0)	(1,0)	(1,0)	(1,0)	(1,0)	(1,0)	(1,0)	(1,0)	(1,0)	
L2C 44>	(1,0)	(1,0)	(1,0)	(1,0)	(1,0)	(1,0)	(1,0)	(1,0)	(1,0)	(1,0)	(1,0)	(1,0)	(1,0)	(1,0)	(1,0)	(1,0)	
L2C 45>	(1,0)	(1,0)	(1,0)	(1,0)	(1,0)	(1,0)	(1,0)	(1,0)	(1,0)	(1,0)	(1,0)	(1,0)	(1,0)	(1,0)	(1,0)	(1,0)	
L2C 46>	(1,0)	(1,0)	(1,0)	(1,0)	(1,0)	(1,0)	(1,0)	(1,0)	(1,0)	(1,0)	(1,0)	(1,0)	(1,0)	(1,0)	(1,0)	(1,0)	
L2C 47>	(1,1)	(-28,1)	(1,0)	(1,0)	(1,0)	(1,0)	(1,0)	(1,0)	(1,0)	(1,0)	(1,0)	(1,0)	(1,0)	(1,0)	(1,0)	(1,0)	
L2C 48>	(-55,1)	(1,0)	(1,0)	(1,0)	(1,0)	(1,0)	(1,0)	(1,0)	(1,0)	(1,0)	(1,0)	(1,0)	(1,0)	(1,0)	(1,0)	(1,0)	
L2C 49>	(1,0)	(1,0)	(1,0)	(1,0)	(1,0)	(1,0)	(1,0)	(1,0)	(1,0)	(1,0)	(1,0)	(1,0)	(1,0)	(1,0)	(1,0)	(1,0)	
L2C 50>	(1,1)	(1,0)	(1,0)	(1,0)	(1,0)	(1,0)	(1,0)	(1,0)	(1,0)	(1,0)	(1,0)	(1,0)	(1,0)	(1,0)	(1,0)	(1,0)	
L2C 51>	(1,0)	(1,0)	(1,0)	(1,0)	(1,0)	(1,0)	(1,0)	(1,0)	(1,0)	(1,0)	(1,0)	(1,0)	(1,0)	(1,0)	(1,0)	(1,0)	
L2C 52>	(1,0)	(1,0)	(1,0)	(1,0)	(1,0)	(1,0)	(1,0)	(1,0)	(1,0)	(1,0)	(1,0)	(1,0)	(1,0)	(1,0)	(1,0)	(1,0)	
L2C 53>	(1,0)	(1,0)	(1,0)	(1,0)	(1,0)	(1,0)	(1,0)	(1,0)	(1,0)	(1,0)	(1,0)	(1,0)	(1,0)	(1,0)	(1,0)	(1,0)	
L2C 54>	(1,0)	(1,0)	(1,0)	(1,0)	(1,0)	(1,0)	(1,0)	(1,0)	(1,0)	(1,0)	(1,0)	(1,0)	(1,0)	(1,0)	(1,0)	(1,0)	
L2C 55>	(1,0)	(1,0)	(1,0)	(1,0)	(1,0)	(1,0)	(1,0)	(1,0)	(1,0)	(1,0)	(1,0)	(1,0)	(1,0)	(1,0)	(1,0)	(1,0)	
L2C 56>	(1,0)	(1,0)	(1,0)	(1,0)	(1,0)	(1,0)	(1,0)	(1,0)	(1,0)	(1,0)	(1,0)	(1,0)	(1,0)	(1,0)	(1,0)	(1,0)	
L2C 57>	(1,0)	(1,0)	(1,0)	(1,0)	(1,0)	(1,0)	(1,0)	(1,0)	(1,0)	(1,0)	(1,0)	(1,0)	(1,0)	(1,0)	(1,0)	(1,0)	
L2C 58>	(1,0)	(1,0)	(1,0)	(1,0)	(1,0)	(1,0)	(1,0)	(1,0)	(1,0)	(1,0)	(1,0)	(1,0)	(1,0)	(1,0)	(1,0)	(1,0)	
L2C 59>	(1,0)	(1,0)	(1,0)	(1,0)	(1,0)	(1,0)	(1,0)	(1,0)	(1,0)	(1,0)	(1,0)	(1,0)	(1,0)	(1,0)	(1,0)	(1,0)	
L2C 60>	(1,0)	(1,0)	(1,0)	(1,0)	(1,0)	(1,0)	(1,0)	(1,0)	(1,0)	(1,0)	(1,0)	(1,0)	(1,0)	(1,0)	(1,0)	(1,0)	
L2C 61>	(1,0)	(1,0)	(1,0)	(1,0)	(1,0)	(1,0)	(1,0)	(1,0)	(1,0)	(1,0)	(1,0)	(1,0)	(1,0)	(1,0)	(1,0)	(1,0)	
L2C 62>	(1,0)	(1,0)	(1,0)	(1,0)	(1,0)	(1,0)	(1,0)	(1,0)	(1,0)	(1,0)	(1,0)	(1,0)	(1,0)	(1,0)	(1,0)	(1,0)	
L2C 63>	(1,0)	(1,0)	(1,0)	(1,0)	(1,0)	(1,0)	(1,0)	(1,0)	(1,0)	(1,0)	(1,0)	(1,0)	(1,0)	(1,0)	(1,0)	(1,0)	

DRAM Statistics
 CHANNEL 0
 RQ ROW_BUFFER_HIT:        729  ROW_BUFFER_MISS:        157
 DBUS_CONGESTED:        260
 WQ ROW_BUFFER_HIT:          0  ROW_BUFFER_MISS:          0  FULL:          0

 AVG_CONGESTED_CYCLE: 6
