
*** ChampSim Multicore Out-of-Order Simulator ***

Warmup Instructions: 1000000
Simulation Instructions: 10000000
Number of CPUs: 1
LLC sets: 2048
LLC ways: 16
Off-chip DRAM Size: 4096 MB Channels: 1 Width: 64-bit Data Rate: 3200 MT/s

CPU 0 runs /home/virtualcse/Data-Prefetching/ChampSim/dpc3_traces/605.mcf_s-665B.champsimtrace.xz
Ultra pref. initializing...
Ultra pref. initialized
Ultra pref. initializing...
Ultra pref. initialized

Warmup complete CPU 0 instructions: 1000004 cycles: 388181 (Simulation time: 0 hr 0 min 3 sec) 

Heartbeat CPU 0 instructions: 10000002 cycles: 20202096 heartbeat IPC: 0.494998 cumulative IPC: 0.454226 (Simulation time: 0 hr 0 min 18 sec) 
Finished CPU 0 instructions: 10000000 cycles: 21973002 cumulative IPC: 0.455104 (Simulation time: 0 hr 0 min 20 sec) 

CPU 0 Branch Prediction Accuracy: 90.2712% MPKI: 19.103 Average ROB Occupancy at Mispredict: 25.0265

ChampSim completed all CPUs

Region of Interest Statistics

CPU 0 cumulative IPC: 0.455104 instructions: 10000000 cycles: 21973002
L1D TOTAL     ACCESS:    5795266  HIT:    5348870  MISS:     446396
L1D LOAD      ACCESS:    2539564  HIT:    2264532  MISS:     275032
L1D RFO       ACCESS:    1069060  HIT:    1032691  MISS:      36369
L1D PREFETCH  ACCESS:    2186642  HIT:    2051647  MISS:     134995
L1D WRITEBACK ACCESS:          0  HIT:          0  MISS:          0
L1D PREFETCH  REQUESTED:   32398810  ISSUED:   29415026  USEFUL:      93000  USELESS:      56062
L1D AVERAGE MISS LATENCY: 72.5598 cycles
L1I TOTAL     ACCESS:     937131  HIT:     937131  MISS:          0
L1I LOAD      ACCESS:     937131  HIT:     937131  MISS:          0
L1I RFO       ACCESS:          0  HIT:          0  MISS:          0
L1I PREFETCH  ACCESS:          0  HIT:          0  MISS:          0
L1I WRITEBACK ACCESS:          0  HIT:          0  MISS:          0
L1I PREFETCH  REQUESTED:          0  ISSUED:          0  USEFUL:          0  USELESS:          0
L1I AVERAGE MISS LATENCY: -nan cycles
L2C TOTAL     ACCESS:    1472698  HIT:     844525  MISS:     628173
L2C LOAD      ACCESS:     272415  HIT:     111967  MISS:     160448
L2C RFO       ACCESS:      36254  HIT:       8657  MISS:      27597
L2C PREFETCH  ACCESS:    1111765  HIT:     671827  MISS:     439938
L2C WRITEBACK ACCESS:      52264  HIT:      52074  MISS:        190
L2C PREFETCH  REQUESTED:    2584481  ISSUED:    1809702  USEFUL:      48194  USELESS:     420598
L2C AVERAGE MISS LATENCY: 133.336 cycles
LLC TOTAL     ACCESS:     666266  HIT:     378243  MISS:     288023
LLC LOAD      ACCESS:     159995  HIT:      98632  MISS:      61363
LLC RFO       ACCESS:      27596  HIT:      25687  MISS:       1909
LLC PREFETCH  ACCESS:     440391  HIT:     215687  MISS:     224704
LLC WRITEBACK ACCESS:      38284  HIT:      38237  MISS:         47
LLC PREFETCH  REQUESTED:          0  ISSUED:          0  USEFUL:      20377  USELESS:     209897
LLC AVERAGE MISS LATENCY: 224.109 cycles
Major fault: 0 Minor fault: 3007

L1D -512>	(9,112)	(-325,2)	(-260,1)	(117,0)	(-156,0)	(160,0)	(-1,2)	(-3,13)	(104,0)	(27,3)	(-12,0)	(8,0)	(15,0)	(7,0)	(0,12)	(18,5)	
L1D -511>	(0,3)	(1,7)	(1,0)	(1,0)	(1,0)	(1,0)	(1,0)	(1,0)	(1,0)	(1,0)	(1,0)	(1,0)	(1,0)	(1,0)	(1,0)	(1,0)	
L1D -510>	(510,1)	(1,1)	(1,0)	(1,0)	(1,0)	(1,0)	(1,0)	(1,0)	(1,0)	(1,0)	(1,0)	(1,0)	(1,0)	(1,0)	(1,0)	(1,0)	
L1D -509>	(508,1)	(1,5)	(0,1)	(1,0)	(1,0)	(1,0)	(1,0)	(1,0)	(1,0)	(1,0)	(1,0)	(1,0)	(1,0)	(1,0)	(1,0)	(1,0)	
L1D -508>	(0,11)	(508,5)	(188,1)	(117,2)	(1,3)	(72,1)	(32,2)	(24,1)	(212,1)	(488,1)	(136,1)	(324,1)	(52,1)	(12,1)	(304,1)	(9,1)	
L1D -507>	(247,1)	(1,2)	(351,3)	(403,1)	(260,2)	(0,2)	(104,1)	(390,1)	(143,1)	(154,1)	(78,1)	(442,1)	(27,1)	(273,2)	(481,2)	(286,1)	
L1D -506>	(506,1)	(504,1)	(272,1)	(456,1)	(0,4)	(-2,1)	(1,1)	(1,0)	(1,0)	(1,0)	(1,0)	(1,0)	(1,0)	(1,0)	(1,0)	(1,0)	
L1D -505>	(0,12)	(504,1)	(9,1)	(505,2)	(342,1)	(495,1)	(1,0)	(1,0)	(1,0)	(1,0)	(1,0)	(1,0)	(1,0)	(1,0)	(1,0)	(1,0)	
L1D -504>	(232,2)	(8,1)	(0,14)	(2,2)	(423,3)	(504,7)	(503,2)	(240,1)	(452,1)	(408,1)	(344,1)	(184,1)	(320,1)	(284,1)	(356,2)	(342,1)	
L1D -503>	(1,1)	(503,2)	(116,1)	(0,1)	(3,1)	(1,0)	(1,0)	(1,0)	(1,0)	(1,0)	(1,0)	(1,0)	(1,0)	(1,0)	(1,0)	(1,0)	
L1D -502>	(-2,3)	(502,2)	(1,2)	(501,1)	(428,1)	(0,4)	(2,4)	(155,1)	(488,1)	(504,1)	(1,0)	(1,0)	(1,0)	(1,0)	(1,0)	(1,0)	
L1D -501>	(-1,1)	(0,1)	(500,1)	(156,1)	(501,1)	(1,0)	(1,0)	(1,0)	(1,0)	(1,0)	(1,0)	(1,0)	(1,0)	(1,0)	(1,0)	(1,0)	
L1D -500>	(412,2)	(408,2)	(428,2)	(500,8)	(76,2)	(292,2)	(0,7)	(72,1)	(288,1)	(2,2)	(272,2)	(424,1)	(484,1)	(1,1)	(192,1)	(-2,2)	
L1D -499>	(498,2)	(118,1)	(36,1)	(0,3)	(-9,1)	(261,1)	(18,1)	(315,1)	(157,1)	(117,1)	(1,0)	(1,0)	(1,0)	(1,0)	(1,0)	(1,0)	
L1D -498>	(48,1)	(2,5)	(0,3)	(497,1)	(498,2)	(172,1)	(224,1)	(234,1)	(1,0)	(1,0)	(1,0)	(1,0)	(1,0)	(1,0)	(1,0)	(1,0)	
L1D -497>	(497,1)	(119,1)	(416,2)	(496,2)	(27,1)	(299,1)	(1,0)	(1,0)	(1,0)	(1,0)	(1,0)	(1,0)	(1,0)	(1,0)	(1,0)	(1,0)	
L1D -496>	(236,2)	(0,9)	(477,1)	(32,1)	(268,2)	(360,3)	(428,1)	(495,1)	(120,1)	(196,1)	(4,1)	(18,1)	(52,1)	(64,1)	(188,1)	(128,1)	
L1D -495>	(0,12)	(27,2)	(270,2)	(495,10)	(45,2)	(494,2)	(36,2)	(99,1)	(450,1)	(315,1)	(117,1)	(207,1)	(1,0)	(1,0)	(1,0)	(1,0)	
L1D -494>	(169,9)	(0,10)	(221,3)	(13,3)	(364,3)	(494,10)	(493,2)	(65,2)	(78,11)	(260,2)	(273,2)	(351,1)	(91,2)	(156,3)	(286,2)	(455,4)	
L1D -493>	(493,2)	(128,1)	(360,1)	(159,1)	(1,0)	(1,0)	(1,0)	(1,0)	(1,0)	(1,0)	(1,0)	(1,0)	(1,0)	(1,0)	(1,0)	(1,0)	
L1D -492>	(492,6)	(360,2)	(416,1)	(0,11)	(320,1)	(491,2)	(328,2)	(208,1)	(484,1)	(148,1)	(129,1)	(-2,2)	(116,2)	(312,1)	(332,1)	(244,1)	
L1D -491>	(130,1)	(491,2)	(490,1)	(1,0)	(1,0)	(1,0)	(1,0)	(1,0)	(1,0)	(1,0)	(1,0)	(1,0)	(1,0)	(1,0)	(1,0)	(1,0)	
L1D -490>	(9,1)	(490,1)	(351,1)	(468,1)	(489,3)	(126,1)	(0,6)	(387,1)	(189,2)	(400,1)	(234,1)	(136,1)	(159,2)	(207,1)	(315,2)	(171,1)	
L1D -489>	(243,1)	(488,2)	(153,1)	(151,1)	(486,1)	(494,1)	(489,1)	(1,0)	(1,0)	(1,0)	(1,0)	(1,0)	(1,0)	(1,0)	(1,0)	(1,0)	
L1D -488>	(0,13)	(184,2)	(88,2)	(488,7)	(352,2)	(372,2)	(360,5)	(328,2)	(8,1)	(340,1)	(348,2)	(160,1)	(132,1)	(380,1)	(464,1)	(-2,1)	
L1D -487>	(486,2)	(45,2)	(0,3)	(72,1)	(18,1)	(261,1)	(1,0)	(1,0)	(1,0)	(1,0)	(1,0)	(1,0)	(1,0)	(1,0)	(1,0)	(1,0)	
L1D -486>	(0,24)	(2,6)	(63,3)	(486,9)	(144,1)	(485,1)	(279,1)	(297,2)	(45,1)	(-2,2)	(504,1)	(18,2)	(153,1)	(315,1)	(171,1)	(261,1)	
L1D -485>	(360,1)	(484,3)	(485,1)	(260,1)	(69,1)	(1,0)	(1,0)	(1,0)	(1,0)	(1,0)	(1,0)	(1,0)	(1,0)	(1,0)	(1,0)	(1,0)	
L1D -484>	(436,2)	(0,27)	(320,3)	(348,1)	(484,17)	(44,1)	(428,1)	(508,1)	(60,3)	(252,1)	(492,1)	(164,1)	(483,1)	(13,2)	(272,1)	(204,1)	
L1D -483>	(482,3)	(136,1)	(-8,1)	(1,0)	(1,0)	(1,0)	(1,0)	(1,0)	(1,0)	(1,0)	(1,0)	(1,0)	(1,0)	(1,0)	(1,0)	(1,0)	
L1D -482>	(0,5)	(482,2)	(2,6)	(137,1)	(-2,2)	(84,1)	(140,1)	(484,2)	(364,1)	(1,0)	(1,0)	(1,0)	(1,0)	(1,0)	(1,0)	(1,0)	
L1D -481>	(-13,1)	(468,24)	(234,6)	(156,14)	(286,3)	(403,7)	(26,9)	(208,3)	(13,9)	(338,10)	(0,3)	(442,11)	(429,5)	(143,12)	(1,2)	(416,7)	
L1D -480>	(360,4)	(196,2)	(336,2)	(448,1)	(318,1)	(320,3)	(480,14)	(0,17)	(120,1)	(432,3)	(2,3)	(328,2)	(492,1)	(228,1)	(124,1)	(4,1)	
L1D -479>	(423,1)	(479,3)	(369,1)	(0,1)	(1,0)	(1,0)	(1,0)	(1,0)	(1,0)	(1,0)	(1,0)	(1,0)	(1,0)	(1,0)	(1,0)	(1,0)	
L1D -478>	(189,1)	(478,3)	(1,1)	(392,1)	(140,1)	(2,7)	(-9,1)	(306,1)	(-2,2)	(0,5)	(432,1)	(459,1)	(396,1)	(135,1)	(477,2)	(423,1)	
L1D -477>	(324,1)	(0,25)	(315,2)	(81,1)	(45,1)	(351,2)	(477,6)	(135,2)	(476,1)	(1,1)	(54,1)	(108,3)	(279,1)	(-18,1)	(198,1)	(288,1)	
L1D -476>	(68,2)	(-2,9)	(0,28)	(136,3)	(80,2)	(272,1)	(28,3)	(456,2)	(120,2)	(128,1)	(476,16)	(4,3)	(184,4)	(40,1)	(404,2)	(328,3)	
L1D -475>	(474,2)	(0,1)	(475,1)	(1,0)	(1,0)	(1,0)	(1,0)	(1,0)	(1,0)	(1,0)	(1,0)	(1,0)	(1,0)	(1,0)	(1,0)	(1,0)	
L1D -474>	(2,7)	(473,1)	(176,1)	(-2,3)	(474,1)	(476,2)	(216,1)	(472,1)	(80,2)	(0,3)	(28,1)	(120,1)	(-4,1)	(436,1)	(1,1)	(300,1)	
L1D -473>	(472,2)	(-1,1)	(210,1)	(1,0)	(1,0)	(1,0)	(1,0)	(1,0)	(1,0)	(1,0)	(1,0)	(1,0)	(1,0)	(1,0)	(1,0)	(1,0)	
L1D -472>	(252,2)	(0,30)	(470,3)	(-2,2)	(212,2)	(2,6)	(168,1)	(424,2)	(72,1)	(28,2)	(472,16)	(160,2)	(320,2)	(90,1)	(-4,1)	(368,4)	
L1D -471>	(360,2)	(1,1)	(470,3)	(208,4)	(108,1)	(390,1)	(91,1)	(299,1)	(0,1)	(468,3)	(377,1)	(1,0)	(1,0)	(1,0)	(1,0)	(1,0)	
L1D -470>	(-10,4)	(-8,1)	(-1,1)	(90,1)	(272,1)	(0,5)	(145,1)	(2,5)	(472,1)	(470,4)	(40,1)	(-2,3)	(220,1)	(1,0)	(1,0)	(1,0)	
L1D -469>	(-27,1)	(0,5)	(225,1)	(468,3)	(207,1)	(469,1)	(1,1)	(1,0)	(1,0)	(1,0)	(1,0)	(1,0)	(1,0)	(1,0)	(1,0)	(1,0)	
L1D -468>	(0,72)	(108,3)	(390,6)	(172,1)	(429,27)	(247,3)	(468,57)	(65,6)	(26,7)	(299,4)	(260,9)	(221,8)	(312,25)	(-2,10)	(2,4)	(416,5)	
L1D -467>	(1,1)	(466,2)	(148,1)	(0,1)	(467,1)	(1,0)	(1,0)	(1,0)	(1,0)	(1,0)	(1,0)	(1,0)	(1,0)	(1,0)	(1,0)	(1,0)	
L1D -466>	(2,8)	(0,5)	(466,2)	(468,3)	(-2,4)	(465,2)	(408,1)	(184,1)	(4,1)	(140,1)	(1,0)	(1,0)	(1,0)	(1,0)	(1,0)	(1,0)	
L1D -465>	(464,2)	(149,1)	(8,3)	(465,3)	(1,0)	(1,0)	(1,0)	(1,0)	(1,0)	(1,0)	(1,0)	(1,0)	(1,0)	(1,0)	(1,0)	(1,0)	
L1D -464>	(200,2)	(-2,10)	(0,20)	(356,2)	(12,2)	(400,3)	(328,2)	(292,2)	(172,1)	(464,14)	(40,3)	(150,1)	(248,2)	(284,1)	(128,1)	(48,4)	
L1D -463>	(463,1)	(54,2)	(0,8)	(462,3)	(125,1)	(342,1)	(180,1)	(405,2)	(369,1)	(1,1)	(108,1)	(1,0)	(1,0)	(1,0)	(1,0)	(1,0)	
L1D -462>	(7,1)	(0,6)	(2,12)	(8,18)	(9,1)	(461,2)	(464,5)	(-2,3)	(358,1)	(462,2)	(300,1)	(236,1)	(136,2)	(344,1)	(32,1)	(1,0)	
L1D -461>	(461,7)	(0,22)	(151,1)	(460,2)	(1,1)	(1,0)	(1,0)	(1,0)	(1,0)	(1,0)	(1,0)	(1,0)	(1,0)	(1,0)	(1,0)	(1,0)	
L1D -460>	(176,3)	(428,2)	(2,3)	(236,2)	(320,3)	(224,2)	(0,28)	(28,2)	(460,11)	(-2,1)	(368,1)	(68,4)	(456,2)	(392,1)	(312,2)	(388,1)	
L1D -459>	(-27,3)	(459,21)	(0,28)	(45,3)	(144,2)	(450,2)	(1,1)	(207,1)	(288,3)	(153,1)	(460,15)	(351,1)	(63,1)	(414,1)	(9,3)	(458,2)	
L1D -458>	(2,14)	(455,2)	(459,14)	(0,32)	(458,6)	(457,11)	(460,2)	(-2,1)	(220,1)	(296,1)	(-24,1)	(167,1)	(364,1)	(286,2)	(84,1)	(156,1)	
L1D -457>	(457,7)	(0,16)	(458,16)	(456,15)	(62,1)	(-10,3)	(303,1)	(440,2)	(224,2)	(84,1)	(193,1)	(1,0)	(1,0)	(1,0)	(1,0)	(1,0)	
L1D -456>	(216,2)	(456,24)	(88,2)	(-2,1)	(432,2)	(340,1)	(0,47)	(320,2)	(244,1)	(476,3)	(400,2)	(500,1)	(252,3)	(300,4)	(360,6)	(12,1)	
L1D -455>	(416,12)	(325,14)	(104,11)	(13,13)	(260,9)	(0,45)	(312,8)	(390,13)	(364,13)	(429,9)	(208,9)	(338,5)	(203,1)	(454,8)	(143,5)	(468,5)	
L1D -454>	(2,13)	(88,2)	(456,2)	(453,17)	(360,1)	(222,1)	(10,2)	(454,11)	(455,24)	(0,23)	(92,1)	(273,1)	(292,1)	(170,1)	(301,1)	(372,1)	
L1D -453>	(454,21)	(0,15)	(142,1)	(72,1)	(453,6)	(452,21)	(455,1)	(65,1)	(268,1)	(277,1)	(27,1)	(213,1)	(1,0)	(1,0)	(1,0)	(1,0)	
L1D -452>	(0,53)	(184,3)	(-2,24)	(72,5)	(452,33)	(451,4)	(300,3)	(204,4)	(360,3)	(124,3)	(340,1)	(268,3)	(244,2)	(420,3)	(453,16)	(220,2)	
L1D -451>	(451,5)	(452,20)	(0,24)	(-18,1)	(450,11)	(69,1)	(251,1)	(278,1)	(360,1)	(279,1)	(176,1)	(89,1)	(232,1)	(-45,1)	(453,1)	(63,1)	
L1D -450>	(0,72)	(-2,5)	(198,2)	(2,12)	(234,1)	(450,36)	(333,2)	(449,12)	(-45,1)	(277,1)	(405,2)	(451,17)	(112,1)	(-9,4)	(157,1)	(243,2)	
L1D -449>	(449,5)	(450,17)	(0,18)	(395,1)	(451,1)	(448,14)	(71,1)	(331,1)	(182,1)	(1,3)	(303,1)	(92,1)	(360,1)	(248,1)	(1,0)	(1,0)	
L1D -448>	(464,2)	(448,23)	(364,13)	(0,38)	(450,2)	(447,13)	(336,2)	(60,3)	(-2,13)	(112,5)	(168,2)	(228,2)	(449,21)	(12,3)	(320,3)	(212,1)	
L1D -447>	(-8,21)	(0,20)	(447,6)	(1,3)	(448,16)	(281,1)	(446,9)	(337,1)	(192,1)	(304,1)	(101,1)	(65,1)	(171,1)	(425,1)	(449,1)	(259,1)	
L1D -446>	(447,19)	(0,16)	(289,1)	(2,8)	(446,9)	(445,14)	(352,1)	(288,1)	(-2,6)	(158,1)	(448,2)	(444,2)	(192,1)	(112,1)	(442,1)	(88,1)	
L1D -445>	(143,6)	(445,8)	(126,1)	(446,16)	(290,2)	(0,16)	(-63,1)	(161,1)	(78,1)	(444,14)	(338,1)	(297,1)	(193,1)	(94,1)	(52,1)	(442,1)	
L1D -444>	(-2,21)	(2,4)	(0,51)	(28,4)	(268,2)	(340,1)	(-12,4)	(444,29)	(442,3)	(400,3)	(420,1)	(164,5)	(228,2)	(-28,2)	(116,5)	(443,15)	
L1D -443>	(443,7)	(0,20)	(442,16)	(403,1)	(444,23)	(297,1)	(344,1)	(199,1)	(396,1)	(445,1)	(1,3)	(59,1)	(68,1)	(316,1)	(1,0)	(1,0)	
L1D -442>	(442,89)	(0,41)	(468,9)	(2,4)	(78,35)	(327,1)	(182,33)	(-26,25)	(444,3)	(286,10)	(377,5)	(169,6)	(143,31)	(403,5)	(130,5)	(-13,6)	
L1D -441>	(207,2)	(0,58)	(441,18)	(443,2)	(330,1)	(45,1)	(442,21)	(1,3)	(299,1)	(74,1)	(440,11)	(450,1)	(90,1)	(180,1)	(345,1)	(9,1)	
L1D -440>	(424,5)	(0,44)	(432,2)	(392,2)	(292,3)	(8,2)	(2,2)	(440,24)	(441,15)	(-2,17)	(224,3)	(64,2)	(439,6)	(208,2)	(76,2)	(-40,1)	
L1D -439>	(439,5)	(0,13)	(438,13)	(440,19)	(303,1)	(8,4)	(355,1)	(211,1)	(60,2)	(97,1)	(107,1)	(442,2)	(428,1)	(1,0)	(1,0)	(1,0)	
L1D -438>	(2,15)	(438,10)	(0,21)	(439,20)	(345,1)	(140,1)	(440,1)	(437,15)	(171,1)	(420,1)	(232,1)	(-2,4)	(292,2)	(24,1)	(213,1)	(424,1)	
L1D -437>	(154,1)	(408,1)	(437,5)	(438,19)	(99,1)	(439,2)	(436,18)	(0,12)	(233,1)	(214,1)	(313,1)	(169,1)	(346,1)	(1,0)	(1,0)	(1,0)	
L1D -436>	(0,59)	(437,14)	(436,29)	(-2,10)	(-4,2)	(324,2)	(176,4)	(112,3)	(435,13)	(440,1)	(272,3)	(208,2)	(328,3)	(404,2)	(344,1)	(128,1)	
L1D -435>	(0,22)	(434,13)	(355,1)	(-36,1)	(437,4)	(435,6)	(436,19)	(366,1)	(279,1)	(220,1)	(68,1)	(234,1)	(1,2)	(362,1)	(258,1)	(170,1)	
L1D -434>	(2,16)	(434,5)	(0,14)	(436,3)	(360,1)	(316,1)	(435,22)	(433,15)	(172,1)	(367,1)	(-63,1)	(4,1)	(268,2)	(-2,2)	(237,1)	(84,1)	
L1D -433>	(433,7)	(432,15)	(434,14)	(414,1)	(0,19)	(-72,1)	(372,1)	(238,1)	(207,1)	(361,2)	(70,1)	(153,1)	(252,1)	(9,1)	(62,1)	(-63,1)	
L1D -432>	(164,5)	(2,8)	(200,5)	(432,45)	(0,116)	(90,2)	(252,2)	(243,2)	(8,2)	(-24,2)	(236,2)	(-2,21)	(260,2)	(36,1)	(-44,3)	(430,7)	
L1D -431>	(0,24)	(431,8)	(432,16)	(373,1)	(430,10)	(173,1)	(381,1)	(-10,10)	(240,1)	(241,1)	(283,1)	(227,1)	(73,1)	(320,1)	(307,1)	(1,1)	
L1D -430>	(0,18)	(431,23)	(2,39)	(430,12)	(388,1)	(429,15)	(382,1)	(383,1)	(-12,1)	(-2,4)	(1,3)	(244,1)	(428,1)	(152,1)	(320,1)	(208,1)	
L1D -429>	(13,39)	(234,12)	(481,9)	(65,14)	(-13,10)	(429,35)	(401,1)	(247,12)	(169,11)	(117,14)	(104,19)	(0,34)	(403,18)	(364,40)	(338,37)	(260,10)	
L1D -428>	(220,3)	(0,49)	(404,2)	(260,3)	(426,5)	(428,45)	(264,81)	(-3,22)	(320,3)	(-2,33)	(272,8)	(312,1)	(429,21)	(96,1)	(240,1)	(232,4)	
L1D -427>	(409,1)	(0,21)	(426,8)	(428,22)	(429,1)	(333,1)	(288,1)	(396,1)	(90,1)	(177,1)	(386,1)	(-81,1)	(245,1)	(284,1)	(162,1)	(430,1)	
L1D -426>	(0,19)	(2,25)	(426,10)	(427,20)	(425,15)	(8,2)	(411,1)	(-2,8)	(390,1)	(-60,1)	(224,1)	(257,1)	(246,1)	(428,4)	(232,1)	(358,1)	
L1D -425>	(425,7)	(1,2)	(0,16)	(426,12)	(337,1)	(424,14)	(213,1)	(427,1)	(250,1)	(306,1)	(87,1)	(112,1)	(449,1)	(419,1)	(1,0)	(1,0)	
L1D -424>	(0,77)	(-2,20)	(220,4)	(388,2)	(224,3)	(422,4)	(140,3)	(412,2)	(236,2)	(284,3)	(228,1)	(208,5)	(60,2)	(352,2)	(424,30)	(2,4)	
L1D -423>	(0,73)	(243,4)	(422,15)	(424,18)	(216,2)	(189,4)	(360,3)	(61,1)	(234,2)	(423,31)	(333,3)	(27,3)	(420,1)	(351,2)	(135,2)	(45,2)	
L1D -422>	(-2,9)	(422,12)	(2,16)	(0,29)	(421,13)	(424,5)	(423,21)	(62,1)	(136,1)	(208,2)	(252,1)	(-1,1)	(-36,1)	(92,1)	(-44,1)	(101,1)	
L1D -421>	(-10,3)	(-8,20)	(0,18)	(421,6)	(422,19)	(420,10)	(178,1)	(397,1)	(233,1)	(97,1)	(117,1)	(118,1)	(1,2)	(275,1)	(82,1)	(67,1)	
L1D -420>	(252,3)	(124,3)	(0,54)	(420,25)	(440,3)	(76,4)	(200,2)	(424,2)	(276,2)	(68,1)	(344,1)	(-2,21)	(236,6)	(388,2)	(-28,1)	(376,4)	
L1D -419>	(419,9)	(0,31)	(239,1)	(468,1)	(209,1)	(-10,17)	(377,1)	(344,1)	(403,1)	(418,15)	(421,2)	(420,20)	(259,1)	(338,5)	(221,1)	(65,1)	
L1D -418>	(2,16)	(0,33)	(420,4)	(417,20)	(225,1)	(-2,4)	(419,21)	(347,1)	(276,1)	(-10,1)	(27,2)	(207,1)	(138,1)	(418,4)	(376,1)	(44,1)	
L1D -417>	(0,15)	(417,8)	(81,1)	(418,19)	(416,17)	(260,1)	(286,1)	(108,1)	(2,1)	(88,1)	(331,1)	(76,1)	(1,0)	(1,0)	(1,0)	(1,0)	
L1D -416>	(416,31)	(104,31)	(2,4)	(182,13)	(65,22)	(440,1)	(377,56)	(169,7)	(403,13)	(130,26)	(26,14)	(221,24)	(312,30)	(13,32)	(156,17)	(0,98)	
L1D -415>	(416,18)	(414,11)	(0,22)	(9,1)	(354,1)	(179,1)	(401,1)	(1,1)	(415,7)	(10,1)	(-45,1)	(-90,1)	(-54,1)	(109,1)	(-36,1)	(108,1)	
L1D -414>	(414,33)	(2,14)	(416,4)	(-2,8)	(0,85)	(63,5)	(9,4)	(256,1)	(225,2)	(27,2)	(415,20)	(18,3)	(413,12)	(423,2)	(99,2)	(-9,4)	
L1D -413>	(413,9)	(433,1)	(412,15)	(414,21)	(0,10)	(80,1)	(-1,1)	(180,1)	(8,3)	(261,1)	(415,1)	(241,1)	(110,2)	(416,2)	(1,1)	(94,1)	
L1D -412>	(412,28)	(192,3)	(344,3)	(140,3)	(424,9)	(0,55)	(400,1)	(1,5)	(-2,11)	(16,2)	(120,2)	(52,3)	(411,14)	(80,2)	(304,2)	(413,23)	
L1D -411>	(411,8)	(73,1)	(0,15)	(412,24)	(410,15)	(413,1)	(1,1)	(9,1)	(115,1)	(105,1)	(129,1)	(414,1)	(207,1)	(426,1)	(101,1)	(1,0)	
L1D -410>	(410,9)	(-2,5)	(144,1)	(2,23)	(0,25)	(408,1)	(411,22)	(81,1)	(181,1)	(324,1)	(51,1)	(364,1)	(412,5)	(409,11)	(300,1)	(215,4)	
L1D -409>	(0,19)	(408,11)	(427,1)	(409,5)	(1,2)	(364,1)	(410,21)	(87,1)	(405,1)	(372,1)	(262,1)	(252,1)	(258,1)	(108,1)	(247,1)	(36,1)	
L1D -408>	(-36,2)	(408,40)	(406,4)	(0,59)	(8,4)	(234,3)	(200,4)	(2,3)	(60,3)	(372,6)	(172,5)	(-2,22)	(68,2)	(76,1)	(88,3)	(360,6)	
L1D -407>	(407,6)	(0,19)	(104,1)	(410,2)	(373,1)	(408,19)	(183,1)	(406,8)	(263,1)	(16,1)	(121,1)	(372,1)	(339,1)	(364,1)	(52,1)	(1,2)	
L1D -406>	(2,25)	(408,6)	(0,34)	(-2,6)	(-39,1)	(400,1)	(91,18)	(406,4)	(409,1)	(407,24)	(405,13)	(404,2)	(1,2)	(-8,2)	(221,1)	(414,1)	
L1D -405>	(0,84)	(405,25)	(406,25)	(99,2)	(-9,2)	(45,3)	(-10,3)	(441,3)	(225,2)	(297,4)	(404,8)	(396,2)	(106,1)	(261,1)	(432,2)	(288,2)	
L1D -404>	(402,4)	(-2,26)	(124,4)	(0,68)	(2,9)	(60,3)	(404,50)	(92,7)	(252,5)	(405,17)	(32,1)	(376,2)	(240,2)	(332,3)	(204,3)	(316,2)	
L1D -403>	(182,44)	(143,50)	(403,48)	(26,37)	(108,1)	(156,25)	(-65,4)	(325,20)	(260,55)	(91,29)	(234,28)	(0,78)	(13,35)	(416,35)	(169,9)	(195,36)	
L1D -402>	(403,21)	(0,23)	(2,29)	(103,2)	(112,1)	(404,3)	(375,1)	(324,1)	(142,1)	(90,1)	(441,2)	(401,11)	(402,3)	(1,2)	(-16,1)	(-2,7)	
L1D -401>	(0,14)	(401,6)	(400,16)	(402,19)	(376,1)	(404,1)	(-10,1)	(261,1)	(134,1)	(348,1)	(116,1)	(403,1)	(94,1)	(219,1)	(353,1)	(1,0)	
L1D -400>	(400,54)	(0,86)	(124,3)	(8,15)	(401,23)	(216,6)	(-56,6)	(-2,24)	(60,10)	(-84,5)	(312,4)	(176,1)	(136,4)	(264,2)	(80,6)	(2,2)	
L1D -399>	(399,6)	(0,15)	(398,16)	(115,1)	(400,28)	(380,1)	(91,1)	(62,1)	(-18,1)	(262,2)	(-11,1)	(135,1)	(6,1)	(118,1)	(221,1)	(99,1)	
L1D -398>	(0,28)	(224,1)	(-2,8)	(398,6)	(2,11)	(400,6)	(399,25)	(424,1)	(1,3)	(397,16)	(420,1)	(116,1)	(22,1)	(472,1)	(136,1)	(137,1)	
L1D -397>	(121,1)	(397,5)	(398,23)	(0,22)	(396,12)	(381,1)	(187,1)	(395,1)	(202,1)	(289,1)	(1,1)	(23,1)	(263,1)	(137,2)	(119,1)	(120,1)	
L1D -396>	(0,69)	(216,1)	(378,2)	(396,32)	(192,1)	(308,1)	(24,2)	(99,1)	(172,2)	(397,12)	(52,1)	(395,6)	(428,1)	(248,1)	(-54,1)	(392,2)	
L1D -395>	(111,1)	(395,5)	(0,24)	(394,16)	(396,19)	(397,1)	(45,1)	(25,1)	(142,1)	(356,1)	(303,1)	(398,1)	(191,1)	(401,1)	(126,1)	(1,0)	
L1D -394>	(393,14)	(4,2)	(0,29)	(144,1)	(395,21)	(394,9)	(384,1)	(2,14)	(-63,1)	(336,1)	(-4,1)	(376,1)	(312,1)	(397,1)	(27,1)	(268,1)	
L1D -393>	(0,26)	(52,6)	(392,17)	(393,7)	(225,1)	(394,24)	(385,1)	(299,1)	(364,3)	(46,1)	(-13,6)	(265,1)	(91,1)	(130,1)	(156,1)	(208,1)	
L1D -392>	(0,72)	(392,47)	(-10,3)	(393,17)	(-44,4)	(324,2)	(391,17)	(252,1)	(130,1)	(2,10)	(136,1)	(-36,2)	(152,3)	(-2,29)	(100,1)	(404,2)	
L1D -391>	(390,19)	(0,27)	(141,1)	(391,6)	(392,21)	(94,1)	(63,1)	(9,2)	(47,1)	(1,2)	(251,1)	(144,1)	(360,1)	(45,1)	(193,1)	(135,1)	
L1D -390>	(0,103)	(39,18)	(2,27)	(286,17)	(325,17)	(143,13)	(390,35)	(13,13)	(130,15)	(273,17)	(52,22)	(234,37)	(312,10)	(221,32)	(299,22)	(389,1)	
L1D -389>	(388,16)	(389,7)	(390,23)	(0,15)	(360,1)	(391,1)	(441,1)	(415,1)	(77,1)	(36,1)	(253,1)	(146,1)	(1,2)	(106,1)	(311,1)	(-63,1)	
L1D -388>	(396,5)	(-2,28)	(388,39)	(436,1)	(0,62)	(224,5)	(8,2)	(68,3)	(220,2)	(76,6)	(387,16)	(200,6)	(389,14)	(112,2)	(-52,2)	(408,4)	
L1D -387>	(198,3)	(0,95)	(387,29)	(99,2)	(333,2)	(63,2)	(386,20)	(36,5)	(72,2)	(388,26)	(117,2)	(-45,2)	(90,1)	(-66,1)	(279,3)	(8,2)	
L1D -386>	(220,1)	(385,18)	(388,4)	(0,23)	(2,35)	(387,26)	(386,3)	(108,1)	(384,2)	(214,1)	(12,1)	(-117,1)	(-2,5)	(100,1)	(338,1)	(-19,1)	
L1D -385>	(0,13)	(384,16)	(386,24)	(322,1)	(382,1)	(189,1)	(8,2)	(428,1)	(296,1)	(277,1)	(278,1)	(385,1)	(387,2)	(155,1)	(366,1)	(123,1)	
L1D -384>	(384,31)	(160,5)	(364,12)	(0,63)	(244,5)	(336,1)	(368,6)	(-2,37)	(52,4)	(32,2)	(124,3)	(-44,3)	(260,4)	(220,2)	(188,2)	(385,2)	
L1D -383>	(386,1)	(0,16)	(384,23)	(382,15)	(383,5)	(396,1)	(61,1)	(190,1)	(429,1)	(385,1)	(381,1)	(49,1)	(280,1)	(268,2)	(1,2)	(127,1)	
L1D -382>	(2,16)	(1,1)	(380,1)	(382,10)	(-39,1)	(0,41)	(383,22)	(62,1)	(384,9)	(333,1)	(381,16)	(-2,8)	(430,1)	(120,1)	(297,1)	(-21,1)	
L1D -381>	(381,7)	(0,14)	(380,19)	(163,1)	(398,1)	(382,24)	(-70,1)	(4,3)	(431,1)	(379,1)	(52,2)	(-21,1)	(259,1)	(383,2)	(158,1)	(27,1)	
L1D -380>	(360,3)	(44,4)	(-2,37)	(256,4)	(0,68)	(380,42)	(208,2)	(352,4)	(260,7)	(388,2)	(379,18)	(404,4)	(248,5)	(164,2)	(104,6)	(381,4)	
L1D -379>	(0,30)	(378,17)	(379,6)	(333,1)	(380,18)	(64,1)	(97,1)	(-10,3)	(53,1)	(271,1)	(372,1)	(288,1)	(381,3)	(1,1)	(369,1)	(124,1)	
L1D -378>	(0,98)	(405,3)	(-2,6)	(378,37)	(108,3)	(380,5)	(36,2)	(379,26)	(2,22)	(243,3)	(171,2)	(18,6)	(-27,1)	(360,2)	(93,1)	(189,2)	
L1D -377>	(377,82)	(-13,30)	(26,18)	(221,23)	(403,17)	(351,16)	(52,56)	(13,24)	(169,19)	(65,26)	(299,37)	(78,38)	(184,1)	(208,8)	(39,24)	(481,28)	
L1D -376>	(-2,24)	(396,3)	(192,1)	(116,4)	(377,25)	(376,53)	(2,8)	(184,6)	(432,2)	(92,4)	(0,78)	(20,2)	(160,2)	(456,2)	(136,3)	(12,5)	
L1D -375>	(375,6)	(0,20)	(376,25)	(378,3)	(187,1)	(70,1)	(-121,1)	(200,1)	(374,11)	(57,1)	(-23,1)	(53,1)	(170,1)	(152,1)	(1,1)	(327,1)	
L1D -374>	(376,5)	(2,37)	(374,8)	(1,5)	(373,14)	(0,15)	(375,31)	(189,1)	(406,1)	(73,1)	(-40,1)	(-2,7)	(377,2)	(68,1)	(136,1)	(61,1)	
L1D -373>	(372,12)	(373,5)	(0,25)	(197,1)	(374,24)	(407,1)	(79,1)	(90,1)	(27,1)	(-24,1)	(351,1)	(173,1)	(216,1)	(131,1)	(376,1)	(360,1)	
L1D -372>	(464,1)	(0,76)	(116,3)	(304,4)	(372,60)	(-2,39)	(408,3)	(2,11)	(374,5)	(140,3)	(28,4)	(-84,5)	(80,3)	(124,3)	(100,2)	(288,3)	
L1D -371>	(370,16)	(371,9)	(0,25)	(202,1)	(372,23)	(201,1)	(373,2)	(301,1)	(55,1)	(185,1)	(378,1)	(1,2)	(160,1)	(109,1)	(85,1)	(374,1)	
L1D -370>	(342,2)	(2,36)	(-48,1)	(369,18)	(0,32)	(368,4)	(370,2)	(392,1)	(82,1)	(372,12)	(-2,8)	(68,1)	(371,22)	(-73,1)	(202,1)	(96,1)	
L1D -369>	(0,104)	(369,48)	(54,2)	(-8,4)	(368,17)	(342,3)	(27,2)	(90,2)	(297,2)	(252,3)	(189,2)	(370,25)	(371,2)	(99,3)	(203,1)	(18,5)	
L1D -368>	(456,2)	(368,42)	(0,79)	(60,4)	(356,3)	(68,4)	(204,3)	(364,2)	(28,3)	(420,3)	(264,5)	(280,5)	(-80,2)	(4,7)	(48,4)	(304,4)	
L1D -367>	(367,6)	(366,14)	(143,1)	(0,14)	(39,1)	(368,27)	(-8,2)	(13,1)	(434,1)	(70,1)	(63,1)	(107,3)	(278,1)	(60,1)	(268,1)	(187,1)	
L1D -366>	(365,19)	(2,34)	(224,2)	(368,3)	(-2,15)	(-20,2)	(0,33)	(366,7)	(367,22)	(208,1)	(-75,1)	(156,1)	(-10,6)	(364,2)	(-52,2)	(76,1)	
L1D -365>	(0,16)	(364,18)	(365,10)	(366,25)	(101,1)	(302,1)	(303,1)	(190,1)	(13,1)	(-89,1)	(170,1)	(345,1)	(209,1)	(66,1)	(-62,1)	(1,0)	
L1D -364>	(364,127)	(0,111)	(-76,1)	(164,3)	(39,24)	(-2,25)	(182,6)	(2,5)	(117,30)	(448,34)	(240,8)	(312,30)	(26,26)	(325,30)	(78,15)	(286,31)	
L1D -363>	(0,26)	(364,26)	(78,1)	(363,8)	(-108,1)	(362,14)	(207,1)	(65,2)	(1,2)	(131,1)	(366,1)	(365,1)	(191,1)	(175,1)	(-65,1)	(265,1)	
L1D -362>	(0,29)	(362,10)	(361,21)	(2,66)	(-2,5)	(364,19)	(218,1)	(-64,1)	(363,28)	(144,1)	(-130,1)	(208,1)	(303,1)	(388,1)	(132,1)	(-80,1)	
L1D -361>	(-3,2)	(240,2)	(361,8)	(360,17)	(448,12)	(0,20)	(362,24)	(255,2)	(383,2)	(135,1)	(8,3)	(363,2)	(9,1)	(133,1)	(144,1)	(68,1)	
L1D -360>	(0,118)	(64,3)	(360,64)	(333,3)	(362,4)	(36,3)	(236,3)	(-3,12)	(135,3)	(9,2)	(372,2)	(351,4)	(-2,38)	(400,1)	(-18,3)	(243,1)	
L1D -359>	(0,17)	(359,6)	(360,24)	(224,1)	(358,13)	(209,1)	(67,1)	(356,1)	(135,1)	(69,1)	(16,1)	(148,1)	(1,1)	(362,1)	(61,1)	(-63,1)	
L1D -358>	(2,23)	(108,1)	(124,2)	(358,8)	(0,24)	(360,25)	(176,1)	(359,28)	(357,7)	(-2,17)	(361,2)	(-77,1)	(-4,1)	(112,2)	(72,1)	(70,2)	
L1D -357>	(357,4)	(0,20)	(231,1)	(1,2)	(358,30)	(413,1)	(356,13)	(354,1)	(71,1)	(6,3)	(137,1)	(-35,1)	(73,1)	(304,1)	(-74,1)	(198,1)	
L1D -356>	(356,69)	(-88,6)	(-60,4)	(-48,6)	(0,92)	(-2,41)	(368,4)	(-52,3)	(24,3)	(355,18)	(124,3)	(357,22)	(-64,4)	(44,3)	(232,1)	(354,3)	
L1D -355>	(236,1)	(355,5)	(0,32)	(356,22)	(361,1)	(94,1)	(354,15)	(-133,1)	(439,1)	(73,2)	(-42,1)	(52,1)	(288,1)	(1,4)	(252,1)	(76,1)	
L1D -354>	(2,21)	(353,14)	(338,6)	(-2,13)	(354,12)	(355,27)	(0,44)	(348,1)	(208,1)	(132,1)	(198,1)	(-12,1)	(36,4)	(90,1)	(415,1)	(95,1)	
L1D -353>	(253,1)	(180,1)	(353,4)	(0,13)	(-8,1)	(354,29)	(96,1)	(352,16)	(-10,2)	(-43,1)	(76,1)	(306,1)	(78,1)	(275,1)	(-76,1)	(204,1)	
L1D -352>	(44,5)	(-2,50)	(92,6)	(352,56)	(0,93)	(48,6)	(351,16)	(340,1)	(132,2)	(353,6)	(432,3)	(2,4)	(144,3)	(60,4)	(372,7)	(332,4)	
L1D -351>	(26,11)	(0,81)	(351,42)	(-13,10)	(162,3)	(286,11)	(208,24)	(312,25)	(299,8)	(169,13)	(156,24)	(260,13)	(364,16)	(195,21)	(403,6)	(-52,20)	
L1D -350>	(0,25)	(-8,13)	(350,10)	(351,25)	(-2,7)	(2,34)	(266,1)	(10,2)	(388,1)	(99,1)	(336,1)	(349,15)	(352,6)	(120,1)	(296,1)	(276,1)	
L1D -349>	(350,27)	(0,9)	(349,3)	(348,15)	(352,3)	(268,1)	(-46,1)	(351,1)	(1,2)	(291,1)	(143,1)	(82,1)	(312,1)	(218,1)	(8,1)	(-101,1)	
L1D -348>	(0,100)	(164,6)	(4,4)	(204,1)	(-2,33)	(180,3)	(2,8)	(168,2)	(348,58)	(349,26)	(12,8)	(-68,5)	(224,3)	(44,2)	(-36,3)	(452,3)	
L1D -347>	(0,28)	(346,11)	(347,6)	(348,26)	(350,2)	(271,1)	(109,1)	(79,1)	(292,1)	(1,3)	(145,1)	(89,1)	(317,1)	(280,1)	(338,1)	(334,1)	
L1D -346>	(2,28)	(346,4)	(0,37)	(347,27)	(274,1)	(326,1)	(348,5)	(106,1)	(76,2)	(-79,1)	(113,1)	(-2,6)	(-137,1)	(345,12)	(8,2)	(126,1)	
L1D -345>	(0,20)	(8,2)	(346,29)	(439,1)	(344,11)	(52,1)	(442,1)	(-60,1)	(80,1)	(81,1)	(347,1)	(345,4)	(-108,1)	(147,1)	(91,1)	(92,1)	
L1D -344>	(16,4)	(344,52)	(2,1)	(-32,3)	(0,94)	(160,5)	(132,5)	(260,4)	(345,34)	(196,2)	(342,3)	(324,8)	(128,4)	(448,3)	(-2,40)	(346,4)	
L1D -343>	(343,6)	(344,30)	(342,20)	(0,31)	(-97,2)	(24,1)	(-8,4)	(-61,1)	(82,1)	(-48,1)	(298,1)	(-153,1)	(162,1)	(252,1)	(148,1)	(325,1)	
L1D -342>	(0,87)	(343,15)	(90,2)	(281,1)	(-2,6)	(333,3)	(344,5)	(342,27)	(261,2)	(-36,1)	(-135,1)	(341,9)	(2,14)	(180,1)	(243,3)	(1,1)	
L1D -341>	(0,23)	(342,33)	(341,8)	(340,16)	(-39,1)	(260,3)	(-49,1)	(300,1)	(1,4)	(149,1)	(343,1)	(92,1)	(-65,1)	(328,1)	(239,1)	(165,1)	
L1D -340>	(-4,4)	(2,10)	(0,76)	(16,4)	(341,20)	(340,41)	(339,18)	(64,4)	(272,1)	(-2,37)	(-20,3)	(96,4)	(68,3)	(268,8)	(352,5)	(124,6)	
L1D -339>	(0,27)	(339,5)	(338,17)	(340,28)	(288,1)	(223,1)	(83,1)	(99,1)	(286,1)	(-87,1)	(166,1)	(408,1)	(34,1)	(1,1)	(291,1)	(409,1)	
L1D -338>	(338,89)	(2,30)	(289,1)	(0,73)	(351,18)	(26,31)	(130,27)	(39,35)	(260,54)	(390,8)	(169,34)	(-65,53)	(208,26)	(91,38)	(78,24)	(182,30)	
L1D -337>	(336,19)	(338,28)	(1,2)	(337,4)	(0,15)	(-153,1)	(-8,2)	(-50,1)	(-47,1)	(100,1)	(-88,1)	(244,1)	(18,1)	(2,1)	(-92,1)	(169,1)	
L1D -336>	(0,92)	(98,1)	(292,3)	(92,7)	(336,63)	(288,3)	(64,2)	(-2,36)	(152,4)	(337,23)	(-24,3)	(212,4)	(104,3)	(264,4)	(40,5)	(76,5)	
L1D -335>	(0,20)	(86,1)	(-135,1)	(8,7)	(335,4)	(336,27)	(161,1)	(1,2)	(337,2)	(334,14)	(85,1)	(312,1)	(2,1)	(101,1)	(332,1)	(175,1)	
L1D -334>	(2,30)	(336,9)	(334,6)	(335,32)	(0,35)	(-126,2)	(48,2)	(333,10)	(-2,9)	(-76,2)	(-142,1)	(226,1)	(340,1)	(200,1)	(252,1)	(316,1)	
L1D -333>	(0,123)	(333,53)	(334,33)	(332,16)	(360,7)	(90,2)	(108,4)	(-9,5)	(315,4)	(342,6)	(261,3)	(153,3)	(180,1)	(193,1)	(324,3)	(171,5)	
L1D -332>	(-2,38)	(331,17)	(0,108)	(196,5)	(332,43)	(-100,1)	(32,4)	(333,31)	(356,3)	(52,3)	(268,4)	(312,5)	(136,3)	(124,2)	(320,5)	(104,3)	
L1D -331>	(330,19)	(0,22)	(332,28)	(87,1)	(331,3)	(164,1)	(429,1)	(320,1)	(-51,1)	(339,1)	(294,1)	(333,1)	(-110,1)	(-92,1)	(-22,1)	(32,1)	
L1D -330>	(2,30)	(332,7)	(0,21)	(-8,5)	(331,31)	(305,1)	(116,1)	(330,5)	(-24,1)	(117,1)	(-2,12)	(329,14)	(296,1)	(392,1)	(333,1)	(106,1)	
L1D -329>	(329,5)	(330,37)	(328,12)	(306,1)	(127,1)	(284,1)	(0,15)	(322,1)	(154,1)	(340,1)	(-93,1)	(263,1)	(183,1)	(-23,1)	(403,1)	(4,1)	
L1D -328>	(196,1)	(332,2)	(0,64)	(276,2)	(48,2)	(360,2)	(328,29)	(408,1)	(150,1)	(329,15)	(-2,13)	(256,2)	(224,1)	(-92,1)	(220,3)	(40,1)	
L1D -327>	(326,22)	(0,18)	(309,1)	(327,2)	(328,33)	(128,1)	(306,1)	(-10,4)	(-64,1)	(92,1)	(-53,1)	(1,2)	(325,1)	(296,1)	(421,1)	(37,1)	
L1D -326>	(325,12)	(-52,2)	(0,34)	(326,9)	(2,35)	(184,2)	(311,1)	(52,1)	(327,29)	(129,1)	(132,1)	(-2,4)	(396,1)	(364,1)	(232,1)	(328,3)	
L1D -325>	(0,109)	(-39,17)	(208,50)	(52,22)	(156,42)	(324,1)	(325,71)	(65,28)	(39,95)	(-65,17)	(299,26)	(13,51)	(-78,18)	(143,58)	(481,25)	(91,14)	
L1D -324>	(0,100)	(288,2)	(322,3)	(326,2)	(-32,2)	(325,9)	(2,3)	(176,2)	(252,2)	(96,2)	(189,2)	(-2,23)	(324,41)	(84,2)	(312,2)	(304,1)	
L1D -323>	(317,1)	(322,13)	(323,7)	(324,28)	(1,4)	(0,24)	(177,1)	(325,3)	(326,3)	(432,1)	(134,1)	(133,1)	(-55,1)	(328,1)	(344,1)	(61,1)	
L1D -322>	(322,9)	(-92,1)	(2,47)	(0,27)	(178,1)	(-2,15)	(8,18)	(323,31)	(321,13)	(324,7)	(134,1)	(234,1)	(320,1)	(-12,1)	(-132,1)	(-16,1)	
L1D -321>	(322,30)	(0,22)	(320,14)	(318,1)	(372,1)	(-88,1)	(137,1)	(236,1)	(89,1)	(321,3)	(59,1)	(157,1)	(190,1)	(191,1)	(430,1)	(41,1)	
L1D -320>	(-76,6)	(0,87)	(320,47)	(56,4)	(152,1)	(-2,49)	(244,6)	(321,27)	(292,2)	(-28,5)	(224,3)	(180,4)	(40,5)	(-40,4)	(12,5)	(28,4)	
L1D -319>	(318,12)	(320,33)	(0,27)	(93,2)	(59,1)	(-89,1)	(138,1)	(99,2)	(162,1)	(90,1)	(288,1)	(319,5)	(60,1)	(159,1)	(112,1)	(346,1)	
L1D -318>	(61,1)	(320,5)	(319,28)	(0,32)	(317,14)	(2,36)	(-2,9)	(318,11)	(-184,1)	(433,1)	(146,1)	(106,1)	(139,1)	(-149,1)	(-66,1)	(-32,1)	
L1D -317>	(0,25)	(318,31)	(317,8)	(323,1)	(148,1)	(140,1)	(81,1)	(-8,2)	(316,13)	(-58,1)	(91,1)	(63,1)	(234,1)	(-115,1)	(319,2)	(-55,1)	
L1D -316>	(316,83)	(84,1)	(-2,49)	(2,11)	(204,6)	(268,6)	(-124,2)	(-120,4)	(400,2)	(224,3)	(0,125)	(56,7)	(248,3)	(80,5)	(-92,2)	(136,4)	
L1D -315>	(0,111)	(315,45)	(45,4)	(180,3)	(324,4)	(54,2)	(-9,3)	(455,1)	(243,2)	(234,3)	(288,1)	(316,14)	(306,3)	(314,6)	(52,1)	(27,2)	
L1D -314>	(-2,22)	(-10,3)	(0,52)	(315,28)	(2,42)	(63,1)	(-1,2)	(313,15)	(314,9)	(-8,1)	(-65,1)	(149,1)	(144,1)	(-76,1)	(-184,1)	(380,1)	
L1D -313>	(312,17)	(313,6)	(0,21)	(69,1)	(314,30)	(150,1)	(-90,1)	(145,1)	(-151,1)	(243,1)	(-67,1)	(95,1)	(282,1)	(1,3)	(61,1)	(122,1)	
L1D -312>	(312,81)	(-39,9)	(13,16)	(-2,21)	(325,9)	(-143,10)	(60,1)	(260,12)	(26,4)	(52,16)	(0,78)	(234,13)	(429,3)	(39,13)	(403,12)	(247,29)	
L1D -311>	(311,7)	(0,20)	(1,2)	(310,15)	(312,29)	(326,1)	(-91,1)	(147,1)	(-10,2)	(315,1)	(73,1)	(360,1)	(337,1)	(-59,1)	(69,1)	(305,1)	
L1D -310>	(309,17)	(2,39)	(310,12)	(311,27)	(0,36)	(312,5)	(-48,1)	(155,1)	(-160,1)	(-2,11)	(262,1)	(18,1)	(238,2)	(-16,2)	(270,1)	(1,1)	
L1D -309>	(0,26)	(310,31)	(327,1)	(-18,1)	(8,14)	(308,17)	(-69,1)	(-152,1)	(246,1)	(96,1)	(61,1)	(309,2)	(337,1)	(80,1)	(350,1)	(166,1)	
L1D -308>	(2,12)	(0,122)	(-2,44)	(308,54)	(-16,3)	(-56,5)	(360,1)	(307,13)	(-12,11)	(288,2)	(-4,5)	(224,4)	(336,6)	(309,35)	(284,2)	(300,6)	
L1D -307>	(27,1)	(307,9)	(308,32)	(0,31)	(306,16)	(309,2)	(158,1)	(-92,1)	(156,1)	(36,1)	(247,1)	(97,1)	(360,1)	(86,1)	(117,1)	(128,1)	
L1D -306>	(2,23)	(432,2)	(0,99)	(307,7)	(297,2)	(18,4)	(305,10)	(-54,2)	(-72,1)	(279,1)	(308,4)	(405,1)	(306,41)	(315,2)	(207,2)	(216,2)	
L1D -305>	(0,18)	(306,32)	(307,1)	(305,5)	(159,2)	(304,15)	(-69,1)	(-63,1)	(99,1)	(356,1)	(133,1)	(312,1)	(4,1)	(-110,1)	(38,1)	(221,1)	
L1D -304>	(306,3)	(0,68)	(12,4)	(-172,2)	(76,1)	(472,1)	(304,39)	(305,15)	(-2,24)	(356,2)	(128,4)	(60,1)	(-48,45)	(64,2)	(360,3)	(164,1)	
L1D -303>	(302,20)	(303,9)	(304,25)	(0,22)	(4,3)	(1,1)	(439,1)	(162,1)	(160,1)	(-153,1)	(458,1)	(98,1)	(-64,1)	(91,1)	(92,1)	(-113,1)	
L1D -302>	(2,23)	(301,18)	(0,50)	(312,7)	(302,4)	(304,11)	(356,1)	(478,1)	(-2,7)	(303,29)	(163,1)	(308,1)	(-76,1)	(161,1)	(464,1)	(-8,2)	
L1D -301>	(302,32)	(-189,1)	(-10,27)	(-149,1)	(301,8)	(0,28)	(300,16)	(234,1)	(372,1)	(91,1)	(18,1)	(27,2)	(216,1)	(137,1)	(90,1)	(76,1)	
L1D -300>	(228,3)	(300,49)	(0,112)	(148,4)	(20,5)	(-2,43)	(100,3)	(188,4)	(304,3)	(196,4)	(4,3)	(301,14)	(236,1)	(136,3)	(220,3)	(128,6)	
L1D -299>	(0,127)	(299,71)	(52,31)	(312,66)	(298,1)	(364,53)	(143,23)	(26,28)	(-26,31)	(286,53)	(234,27)	(91,29)	(-39,19)	(351,29)	(156,68)	(169,64)	
L1D -298>	(-2,8)	(10,2)	(2,31)	(0,42)	(300,7)	(292,1)	(298,7)	(299,32)	(-88,1)	(424,1)	(190,1)	(-160,1)	(442,1)	(297,15)	(-94,1)	(-157,1)	
L1D -297>	(297,37)	(18,4)	(0,96)	(153,3)	(171,3)	(279,2)	(298,15)	(296,9)	(-36,1)	(-9,4)	(108,2)	(-72,1)	(99,2)	(54,1)	(324,1)	(1,2)	
L1D -296>	(244,8)	(297,24)	(300,5)	(0,115)	(148,7)	(-2,56)	(2,10)	(68,1)	(76,3)	(296,65)	(184,4)	(-66,2)	(-84,3)	(52,6)	(224,2)	(380,2)	
L1D -295>	(112,1)	(0,22)	(360,2)	(295,4)	(294,13)	(296,25)	(172,1)	(298,2)	(102,2)	(107,1)	(282,1)	(388,1)	(99,1)	(144,1)	(268,1)	(-116,1)	
L1D -294>	(2,33)	(-109,1)	(295,32)	(1,3)	(0,33)	(328,1)	(224,1)	(296,9)	(-2,10)	(56,1)	(293,16)	(192,1)	(172,1)	(164,1)	(254,1)	(166,1)	
L1D -293>	(293,1)	(0,20)	(468,1)	(292,15)	(209,1)	(294,30)	(-80,1)	(174,2)	(-13,2)	(256,1)	(104,1)	(-67,1)	(101,1)	(146,1)	(332,1)	(1,4)	
L1D -292>	(292,41)	(0,69)	(-48,2)	(-56,4)	(224,3)	(290,3)	(132,1)	(-4,2)	(-2,28)	(32,37)	(293,14)	(-3,5)	(2,5)	(152,1)	(-20,3)	(180,3)	
L1D -291>	(290,16)	(-8,10)	(0,34)	(70,1)	(292,36)	(212,1)	(291,6)	(168,1)	(105,1)	(-68,1)	(149,1)	(150,1)	(335,1)	(16,1)	(17,1)	(243,1)	
L1D -290>	(290,11)	(-2,14)	(289,16)	(4,2)	(71,1)	(-188,2)	(2,37)	(128,1)	(0,36)	(213,1)	(261,1)	(162,1)	(216,1)	(291,39)	(1,4)	(445,2)	
L1D -289>	(-27,1)	(-3,2)	(221,21)	(-13,1)	(289,4)	(0,33)	(299,20)	(288,17)	(52,1)	(182,1)	(290,28)	(-108,1)	(176,1)	(-10,2)	(-8,3)	(143,2)	
L1D -288>	(288,67)	(286,4)	(0,113)	(-10,10)	(84,1)	(56,3)	(340,2)	(-168,5)	(279,4)	(372,2)	(192,3)	(-2,29)	(261,4)	(320,2)	(144,2)	(212,2)	
L1D -287>	(1,1)	(288,28)	(287,3)	(0,27)	(-83,1)	(181,1)	(171,1)	(-159,1)	(286,12)	(-71,2)	(311,1)	(60,1)	(353,1)	(111,1)	(416,1)	(102,1)	
L1D -286>	(0,91)	(234,34)	(2,16)	(208,19)	(156,30)	(285,1)	(143,34)	(286,43)	(273,18)	(195,13)	(325,31)	(-65,7)	(-13,27)	(312,27)	(-52,8)	(91,25)	
L1D -285>	(0,27)	(284,23)	(286,26)	(1,3)	(-114,1)	(-72,1)	(61,1)	(426,1)	(108,1)	(285,3)	(83,1)	(343,1)	(-122,1)	(254,1)	(77,1)	(78,1)	
L1D -284>	(282,3)	(284,74)	(4,5)	(252,3)	(332,3)	(-12,6)	(0,119)	(200,7)	(276,1)	(-2,60)	(-168,4)	(204,5)	(336,5)	(286,7)	(176,2)	(112,4)	
L1D -283>	(0,28)	(283,6)	(282,22)	(8,6)	(284,34)	(285,4)	(288,1)	(188,1)	(279,1)	(-97,1)	(-162,2)	(258,1)	(-73,1)	(104,1)	(72,1)	(431,1)	
L1D -282>	(-2,9)	(2,44)	(282,7)	(140,2)	(284,14)	(0,37)	(283,28)	(264,1)	(88,1)	(281,19)	(84,1)	(181,1)	(324,2)	(20,1)	(164,1)	(100,1)	
L1D -281>	(0,16)	(3,1)	(8,16)	(282,34)	(281,7)	(191,1)	(-98,1)	(280,18)	(-74,2)	(268,1)	(318,1)	(110,1)	(111,1)	(283,2)	(167,1)	(90,1)	
L1D -280>	(236,1)	(0,67)	(280,29)	(88,2)	(390,1)	(168,2)	(28,1)	(-92,1)	(248,1)	(320,2)	(-2,27)	(-60,2)	(-120,2)	(288,3)	(2,4)	(278,1)	
L1D -279>	(0,69)	(279,30)	(126,2)	(351,4)	(270,1)	(90,2)	(261,1)	(378,1)	(117,1)	(297,1)	(288,2)	(189,1)	(280,13)	(369,1)	(278,4)	(-90,1)	
L1D -278>	(277,28)	(280,3)	(2,39)	(-8,4)	(0,41)	(424,2)	(-2,9)	(384,1)	(279,28)	(56,1)	(276,5)	(187,1)	(112,2)	(116,2)	(184,1)	(-76,1)	
L1D -277>	(-121,1)	(278,34)	(0,23)	(277,7)	(280,2)	(451,1)	(195,1)	(188,1)	(-165,1)	(276,13)	(-152,2)	(110,1)	(109,1)	(333,1)	(94,2)	(115,1)	
L1D -276>	(0,90)	(80,3)	(12,1)	(-52,2)	(296,3)	(-2,32)	(52,3)	(316,2)	(136,3)	(364,1)	(-108,2)	(276,46)	(2,3)	(88,5)	(148,2)	(416,1)	
L1D -275>	(274,20)	(0,36)	(276,30)	(-122,1)	(-89,1)	(206,1)	(260,1)	(-10,5)	(275,4)	(-77,1)	(111,1)	(124,1)	(122,1)	(268,1)	(189,1)	(175,1)	
L1D -274>	(0,47)	(2,33)	(-2,15)	(274,13)	(476,1)	(275,34)	(209,1)	(276,7)	(189,1)	(-166,1)	(273,18)	(111,1)	(105,1)	(1,2)	(123,1)	(364,1)	
L1D -273>	(273,49)	(-91,24)	(130,37)	(221,27)	(274,1)	(65,38)	(260,20)	(-117,18)	(-26,38)	(390,10)	(312,22)	(78,25)	(-65,19)	(481,14)	(0,73)	(156,17)	
L1D -272>	(-20,3)	(-2,24)	(272,30)	(268,1)	(0,67)	(308,2)	(36,1)	(276,3)	(240,3)	(88,3)	(-96,2)	(224,2)	(104,2)	(364,2)	(180,1)	(248,2)	
L1D -271>	(76,1)	(272,33)	(0,29)	(270,13)	(219,1)	(357,1)	(113,1)	(-153,1)	(271,7)	(379,1)	(129,1)	(-18,1)	(178,1)	(391,1)	(365,1)	(-117,1)	
L1D -270>	(279,2)	(8,8)	(135,0)	(441,1)	(2,11)	(0,64)	(270,30)	(271,10)	(-36,1)	(27,2)	(-27,2)	(-2,3)	(269,5)	(90,1)	(-81,1)	(351,1)	
L1D -269>	(0,27)	(2,1)	(269,7)	(268,17)	(1,6)	(270,35)	(228,1)	(195,2)	(196,1)	(-79,1)	(256,1)	(121,1)	(126,1)	(99,2)	(307,1)	(-47,1)	
L1D -268>	(0,72)	(148,3)	(268,38)	(68,4)	(269,15)	(40,1)	(256,3)	(380,2)	(-2,25)	(76,3)	(372,2)	(-112,2)	(-64,3)	(2,2)	(248,5)	(144,2)	
L1D -267>	(0,27)	(4,1)	(-19,1)	(268,30)	(267,4)	(-93,1)	(233,1)	(468,1)	(198,1)	(1,1)	(270,1)	(266,17)	(-80,1)	(442,2)	(392,1)	(126,1)	
L1D -266>	(266,7)	(2,41)	(265,16)	(0,37)	(267,35)	(432,1)	(268,15)	(-2,8)	(400,1)	(1,3)	(458,1)	(240,1)	(241,1)	(300,1)	(76,1)	(-101,1)	
L1D -265>	(-8,40)	(265,10)	(81,1)	(0,26)	(88,1)	(89,1)	(266,36)	(264,13)	(243,1)	(-162,1)	(-2,1)	(263,1)	(45,1)	(-81,1)	(117,2)	(405,1)	
L1D -264>	(-2,25)	(264,34)	(0,68)	(84,2)	(2,4)	(-16,2)	(304,2)	(-120,2)	(164,2)	(252,2)	(263,5)	(372,2)	(192,1)	(404,1)	(312,1)	(228,1)	
L1D -263>	(0,30)	(82,1)	(78,2)	(264,28)	(1,5)	(246,1)	(234,5)	(39,4)	(-102,1)	(262,13)	(247,2)	(-82,1)	(120,1)	(442,4)	(182,12)	(408,1)	
L1D -262>	(264,3)	(262,9)	(2,44)	(263,33)	(0,39)	(261,19)	(260,3)	(166,1)	(-10,23)	(-2,14)	(-94,1)	(253,1)	(206,1)	(460,1)	(-152,1)	(184,1)	
L1D -261>	(0,67)	(72,1)	(262,8)	(342,1)	(90,2)	(261,25)	(260,3)	(189,1)	(-36,1)	(279,1)	(234,2)	(-81,1)	(27,1)	(99,1)	(252,2)	(126,2)	
L1D -260>	(260,86)	(195,28)	(91,16)	(286,12)	(0,107)	(364,14)	(-65,8)	(164,1)	(136,2)	(351,10)	(292,3)	(208,32)	(221,19)	(130,13)	(26,26)	(-13,17)	
L1D -259>	(258,20)	(259,5)	(260,28)	(0,27)	(10,3)	(261,2)	(-60,1)	(-10,2)	(262,2)	(-83,1)	(423,1)	(179,1)	(408,1)	(134,1)	(162,1)	(202,1)	
L1D -258>	(4,2)	(0,35)	(258,15)	(-198,1)	(2,52)	(1,3)	(-2,13)	(260,14)	(240,2)	(236,2)	(436,1)	(259,28)	(-96,1)	(257,23)	(289,1)	(125,1)	
L1D -257>	(257,4)	(258,20)	(0,25)	(256,28)	(-135,1)	(8,17)	(259,2)	(-103,1)	(212,1)	(-174,1)	(292,1)	(127,1)	(181,1)	(1,2)	(-2,2)	(140,1)	
L1D -256>	(216,2)	(-92,4)	(-2,29)	(256,56)	(36,4)	(76,2)	(-172,2)	(184,2)	(0,99)	(52,3)	(192,4)	(-72,2)	(258,4)	(16,1)	(2,14)	(168,2)	
L1D -255>	(254,25)	(0,23)	(256,29)	(255,6)	(258,3)	(213,1)	(-85,1)	(-84,1)	(184,1)	(1,5)	(-63,1)	(148,1)	(388,1)	(60,1)	(-128,1)	(284,1)	
L1D -254>	(2,40)	(0,43)	(254,3)	(-72,2)	(1,1)	(13,1)	(256,14)	(253,26)	(-2,13)	(255,33)	(-98,1)	(261,1)	(-192,1)	(216,1)	(295,1)	(-96,1)	
L1D -253>	(252,18)	(0,34)	(97,1)	(254,31)	(249,1)	(253,10)	(2,1)	(256,2)	(-104,1)	(219,3)	(220,1)	(296,1)	(-3,1)	(132,2)	(440,1)	(190,1)	
L1D -252>	(18,2)	(253,14)	(225,2)	(0,127)	(280,2)	(232,2)	(8,3)	(-2,23)	(-8,4)	(36,3)	(252,77)	(126,1)	(44,2)	(348,2)	(-27,3)	(156,3)	
L1D -251>	(251,9)	(253,1)	(0,28)	(250,23)	(252,32)	(-117,1)	(254,3)	(222,1)	(298,1)	(3,1)	(454,1)	(194,1)	(-65,1)	(-62,1)	(173,1)	(-194,1)	
L1D -250>	(250,13)	(0,66)	(2,49)	(455,6)	(-2,9)	(252,15)	(169,3)	(100,1)	(1,6)	(216,1)	(39,2)	(251,32)	(-100,1)	(249,21)	(408,1)	(78,1)	
L1D -249>	(249,9)	(0,29)	(2,1)	(218,1)	(16,1)	(-10,4)	(248,20)	(250,31)	(224,1)	(-178,1)	(305,2)	(251,1)	(-88,1)	(118,1)	(-86,1)	(204,2)	
L1D -248>	(250,2)	(0,87)	(304,4)	(248,58)	(-160,2)	(124,3)	(-28,3)	(112,2)	(192,1)	(180,2)	(2,4)	(288,2)	(-2,30)	(128,1)	(56,1)	(184,3)	
L1D -247>	(180,1)	(208,40)	(0,100)	(-13,86)	(26,52)	(-26,46)	(52,63)	(286,21)	(247,110)	(13,52)	(195,37)	(91,59)	(299,38)	(221,34)	(-78,87)	(130,36)	
L1D -246>	(248,10)	(428,2)	(0,37)	(245,18)	(246,18)	(1,4)	(2,39)	(-2,12)	(76,1)	(247,31)	(308,1)	(166,1)	(388,2)	(10,6)	(231,1)	(256,1)	
L1D -245>	(244,26)	(245,7)	(0,35)	(-67,1)	(1,5)	(246,38)	(136,1)	(220,1)	(429,1)	(-69,1)	(49,1)	(186,1)	(99,1)	(231,1)	(-33,2)	(85,1)	
L1D -244>	(92,3)	(60,2)	(0,67)	(-2,32)	(204,2)	(8,3)	(-64,2)	(194,1)	(-92,3)	(164,3)	(28,3)	(224,3)	(360,2)	(312,3)	(200,2)	(244,35)	
L1D -243>	(-9,3)	(0,80)	(9,4)	(243,36)	(246,2)	(333,1)	(244,7)	(171,1)	(-126,1)	(126,1)	(242,7)	(-108,1)	(18,1)	(27,1)	(99,3)	(135,1)	
L1D -242>	(2,40)	(0,42)	(11,1)	(65,1)	(241,21)	(243,38)	(-105,1)	(44,1)	(203,5)	(233,1)	(-179,1)	(240,3)	(-2,14)	(-91,1)	(138,1)	(244,9)	
L1D -241>	(241,14)	(242,31)	(0,27)	(66,2)	(13,1)	(-193,2)	(235,2)	(240,19)	(120,1)	(2,1)	(139,1)	(163,2)	(468,1)	(233,1)	(-71,1)	(161,1)	
L1D -240>	(364,4)	(240,43)	(-172,2)	(252,4)	(0,81)	(-20,3)	(-2,36)	(92,4)	(-80,2)	(-48,2)	(224,5)	(-56,1)	(241,14)	(-28,1)	(28,4)	(88,2)	
L1D -239>	(239,7)	(0,30)	(15,1)	(240,31)	(-107,1)	(-109,1)	(238,21)	(-8,3)	(1,4)	(432,1)	(58,2)	(192,1)	(242,1)	(237,3)	(-36,1)	(-61,2)	
L1D -238>	(2,39)	(238,11)	(237,21)	(0,38)	(1,2)	(440,1)	(-2,15)	(-56,1)	(68,1)	(239,36)	(241,2)	(240,5)	(216,1)	(-208,1)	(121,1)	(63,1)	
L1D -237>	(0,41)	(236,20)	(416,4)	(-195,18)	(17,1)	(237,9)	(221,20)	(99,1)	(238,32)	(1,4)	(239,3)	(-108,1)	(286,2)	(-110,1)	(240,3)	(29,2)	
L1D -236>	(220,1)	(0,92)	(236,39)	(-136,3)	(176,2)	(2,9)	(8,6)	(235,13)	(196,2)	(124,3)	(-20,3)	(212,6)	(-2,20)	(32,5)	(237,19)	(48,2)	
L1D -235>	(236,33)	(235,8)	(0,37)	(37,1)	(234,20)	(269,1)	(238,2)	(241,3)	(-180,1)	(268,3)	(237,2)	(164,1)	(68,1)	(198,1)	(-89,1)	(107,1)	
L1D -234>	(0,69)	(261,2)	(2,8)	(-117,11)	(234,45)	(-2,1)	(65,12)	(13,16)	(208,18)	(52,7)	(-13,8)	(-156,7)	(78,13)	(-158,7)	(-65,12)	(169,9)	
L1D -233>	(232,27)	(0,26)	(40,1)	(233,4)	(73,1)	(234,34)	(267,1)	(243,1)	(325,1)	(195,1)	(5,1)	(241,1)	(437,1)	(171,1)	(71,1)	(203,1)	
L1D -232>	(88,4)	(44,5)	(300,1)	(0,92)	(-2,44)	(-240,2)	(376,2)	(136,2)	(233,20)	(230,4)	(168,4)	(216,25)	(232,47)	(204,4)	(184,2)	(188,3)	
L1D -231>	(231,6)	(25,1)	(0,27)	(230,27)	(232,33)	(26,1)	(8,11)	(73,1)	(1,3)	(246,1)	(328,1)	(200,1)	(20,1)	(234,1)	(-93,1)	(6,1)	
L1D -230>	(0,45)	(2,56)	(232,12)	(304,2)	(230,10)	(184,1)	(118,1)	(32,1)	(27,1)	(126,2)	(229,23)	(88,1)	(-66,1)	(231,28)	(-124,1)	(-2,21)	
L1D -229>	(229,9)	(-3,13)	(230,40)	(0,35)	(40,1)	(228,33)	(248,1)	(8,3)	(1,4)	(181,1)	(207,1)	(-133,1)	(211,1)	(-104,1)	(-156,1)	(73,1)	
L1D -228>	(0,114)	(-2,56)	(228,74)	(-8,4)	(229,11)	(-184,37)	(-196,1)	(276,4)	(226,5)	(2,10)	(-52,14)	(-144,12)	(-220,3)	(252,3)	(456,3)	(-16,3)	
L1D -227>	(0,35)	(226,30)	(228,32)	(-14,1)	(227,7)	(1,2)	(229,1)	(333,1)	(146,1)	(-225,1)	(185,1)	(230,2)	(79,1)	(175,1)	(-134,1)	(218,1)	
L1D -226>	(2,46)	(227,34)	(0,53)	(226,12)	(-2,18)	(-16,2)	(-72,2)	(268,1)	(1,2)	(298,1)	(252,1)	(225,28)	(-227,1)	(228,10)	(-228,1)	(-116,1)	
L1D -225>	(-126,2)	(0,114)	(225,38)	(117,3)	(-153,2)	(-27,2)	(-135,4)	(-99,2)	(36,3)	(227,1)	(224,8)	(198,1)	(9,5)	(342,4)	(216,1)	(226,14)	
L1D -224>	(2,4)	(222,4)	(-2,46)	(92,100)	(112,1)	(156,4)	(68,2)	(-200,1)	(0,105)	(308,2)	(428,1)	(224,59)	(64,2)	(168,7)	(-24,3)	(88,3)	
L1D -223>	(224,37)	(223,12)	(225,1)	(0,34)	(222,23)	(-10,10)	(1,2)	(250,2)	(62,1)	(-184,1)	(339,1)	(8,1)	(151,1)	(-62,1)	(63,1)	(457,1)	
L1D -222>	(221,14)	(-2,13)	(222,12)	(0,42)	(2,47)	(223,40)	(220,1)	(64,1)	(224,14)	(152,1)	(10,1)	(144,1)	(256,1)	(55,1)	(344,2)	(1,6)	
L1D -221>	(338,30)	(1,1)	(130,25)	(52,53)	(0,99)	(-117,13)	(78,16)	(260,27)	(325,7)	(299,22)	(169,38)	(403,9)	(208,30)	(221,69)	(182,52)	(234,56)	
L1D -220>	(-2,34)	(220,61)	(208,1)	(172,3)	(219,3)	(284,2)	(0,99)	(218,4)	(212,3)	(328,2)	(164,2)	(221,21)	(16,2)	(-36,4)	(222,2)	(76,6)	
L1D -219>	(0,40)	(220,40)	(41,1)	(218,30)	(1,2)	(285,1)	(219,10)	(64,1)	(-121,1)	(253,2)	(63,2)	(-96,1)	(-95,1)	(154,1)	(92,1)	(222,1)	
L1D -218>	(0,42)	(220,19)	(2,48)	(218,17)	(1,7)	(217,26)	(-244,1)	(8,16)	(144,1)	(219,40)	(65,1)	(-240,1)	(-88,1)	(-2,13)	(64,1)	(-68,1)	
L1D -217>	(216,34)	(-164,1)	(0,32)	(18,2)	(217,11)	(218,35)	(219,2)	(204,1)	(-116,1)	(12,1)	(346,1)	(1,3)	(-96,1)	(157,1)	(207,1)	(100,1)	
L1D -216>	(0,121)	(117,8)	(-9,11)	(396,4)	(-44,3)	(-144,2)	(217,13)	(192,2)	(-112,3)	(-64,3)	(-36,2)	(9,3)	(216,65)	(-81,2)	(36,1)	(-2,23)	
L1D -215>	(-73,1)	(8,4)	(2,1)	(0,26)	(1,3)	(214,31)	(216,36)	(215,11)	(-117,1)	(137,2)	(66,1)	(13,1)	(372,2)	(159,1)	(-229,1)	(-91,1)	
L1D -214>	(-20,1)	(2,57)	(0,59)	(-100,1)	(214,10)	(215,32)	(-2,19)	(213,28)	(216,9)	(24,2)	(149,1)	(1,3)	(336,1)	(218,1)	(48,1)	(-34,1)	
L1D -213>	(215,5)	(213,16)	(136,10)	(212,31)	(0,28)	(48,1)	(214,32)	(82,1)	(-8,24)	(256,1)	(70,1)	(-7,1)	(21,1)	(134,1)	(-71,1)	(26,2)	
L1D -212>	(408,3)	(52,2)	(2,5)	(156,2)	(-2,41)	(0,88)	(212,56)	(213,2)	(-52,3)	(-36,1)	(-64,1)	(420,1)	(44,3)	(244,2)	(88,2)	(210,4)	
L1D -211>	(49,1)	(338,1)	(212,39)	(0,42)	(93,1)	(247,1)	(211,6)	(292,1)	(-13,1)	(210,33)	(364,1)	(312,1)	(-127,1)	(25,1)	(-225,1)	(132,1)	
L1D -210>	(-10,4)	(2,55)	(210,23)	(211,40)	(209,36)	(-184,1)	(36,2)	(-2,13)	(0,47)	(212,7)	(31,1)	(1,4)	(273,1)	(68,1)	(-68,1)	(140,1)	
L1D -209>	(208,35)	(50,1)	(0,28)	(32,1)	(209,7)	(1,6)	(210,43)	(260,1)	(258,1)	(27,1)	(-188,1)	(361,1)	(-98,2)	(-11,1)	(162,1)	(35,1)	
L1D -208>	(-26,24)	(-2,24)	(13,23)	(0,115)	(195,19)	(143,14)	(260,19)	(-50,1)	(182,22)	(208,84)	(299,17)	(117,18)	(65,24)	(104,20)	(-156,17)	(312,6)	
L1D -207>	(0,122)	(-153,3)	(18,4)	(207,55)	(-27,3)	(206,20)	(1,1)	(243,2)	(-81,3)	(-90,1)	(-99,1)	(144,1)	(468,1)	(208,13)	(171,1)	(72,2)	
L1D -206>	(2,47)	(0,49)	(-2,27)	(208,16)	(206,15)	(203,1)	(204,1)	(306,1)	(252,2)	(205,39)	(-88,1)	(300,1)	(207,34)	(-128,1)	(-12,2)	(221,1)	
L1D -205>	(204,32)	(1,2)	(0,36)	(206,28)	(205,7)	(8,16)	(-26,1)	(29,1)	(369,1)	(224,1)	(19,1)	(14,1)	(-100,1)	(37,1)	(77,2)	(-233,1)	
L1D -204>	(204,60)	(-2,45)	(-28,2)	(184,4)	(232,2)	(203,20)	(-8,2)	(0,99)	(108,3)	(332,2)	(88,5)	(8,1)	(205,14)	(-72,2)	(-120,3)	(208,3)	
L1D -203>	(202,38)	(370,1)	(204,35)	(0,49)	(98,1)	(40,1)	(1,4)	(203,10)	(206,3)	(266,1)	(35,1)	(-33,1)	(-13,1)	(227,1)	(8,2)	(15,1)	
L1D -202>	(-2,15)	(201,43)	(0,51)	(2,59)	(8,21)	(202,13)	(52,1)	(204,15)	(41,1)	(1,3)	(203,38)	(370,1)	(22,2)	(44,1)	(-27,1)	(17,2)	
L1D -201>	(273,2)	(0,27)	(201,6)	(200,40)	(42,2)	(202,31)	(199,1)	(-189,1)	(374,1)	(-14,1)	(230,1)	(137,2)	(123,1)	(-48,1)	(112,1)	(-97,1)	
L1D -200>	(248,3)	(68,1)	(-2,41)	(201,18)	(-36,13)	(200,64)	(199,24)	(0,103)	(36,3)	(72,6)	(2,2)	(-204,2)	(4,4)	(24,4)	(28,15)	(60,3)	
L1D -199>	(0,42)	(198,48)	(-37,1)	(200,39)	(101,1)	(44,1)	(-126,1)	(199,10)	(201,2)	(-9,1)	(31,1)	(1,2)	(-100,1)	(39,1)	(-252,1)	(-27,1)	
L1D -198>	(0,76)	(198,45)	(-27,1)	(1,1)	(-9,2)	(2,20)	(197,11)	(90,2)	(207,2)	(-2,5)	(189,1)	(127,1)	(117,1)	(199,13)	(459,1)	(200,4)	
L1D -197>	(196,33)	(0,35)	(198,43)	(-38,1)	(-10,6)	(197,6)	(268,1)	(1,8)	(232,1)	(-101,2)	(139,1)	(-13,1)	(174,1)	(-8,2)	(-82,1)	(74,1)	
L1D -196>	(0,100)	(124,3)	(12,4)	(292,2)	(136,3)	(195,20)	(-2,32)	(236,2)	(196,57)	(-48,4)	(2,8)	(197,24)	(-96,4)	(194,2)	(36,5)	(-156,1)	
L1D -195>	(0,108)	(260,29)	(208,29)	(195,88)	(78,22)	(117,42)	(194,2)	(-13,27)	(143,39)	(247,47)	(-169,16)	(130,29)	(196,24)	(39,54)	(338,29)	(-26,35)	
L1D -194>	(324,1)	(-2,18)	(0,45)	(2,60)	(-184,1)	(-10,20)	(195,42)	(194,20)	(196,9)	(-98,1)	(1,9)	(291,2)	(-97,1)	(193,38)	(-68,1)	(116,1)	
L1D -193>	(193,8)	(194,33)	(58,1)	(0,34)	(192,28)	(280,1)	(268,2)	(-132,1)	(38,1)	(4,1)	(25,1)	(81,1)	(222,1)	(-51,1)	(118,1)	(73,1)	
L1D -192>	(194,2)	(2,4)	(192,42)	(0,66)	(304,2)	(44,4)	(8,4)	(193,12)	(-68,3)	(191,15)	(-2,32)	(208,2)	(188,5)	(232,2)	(-148,2)	(200,1)	
L1D -191>	(1,6)	(190,35)	(59,1)	(191,8)	(0,37)	(107,1)	(192,36)	(193,1)	(2,1)	(-267,1)	(-61,1)	(-133,1)	(-22,1)	(-17,1)	(-5,2)	(10,1)	
L1D -190>	(189,34)	(2,46)	(192,16)	(-2,18)	(1,4)	(0,67)	(190,15)	(191,40)	(-252,1)	(280,1)	(8,21)	(-63,1)	(272,2)	(34,2)	(73,1)	(384,1)	
L1D -189>	(189,66)	(324,3)	(-18,5)	(261,2)	(0,126)	(-117,1)	(-90,1)	(18,1)	(99,3)	(9,7)	(225,3)	(-9,5)	(190,21)	(188,17)	(117,1)	(342,1)	
L1D -188>	(56,6)	(172,30)	(2,10)	(-2,34)	(-48,3)	(189,25)	(0,125)	(40,1)	(72,4)	(187,26)	(-44,2)	(104,5)	(188,66)	(220,4)	(60,4)	(208,5)	
L1D -187>	(0,41)	(-8,42)	(186,32)	(189,4)	(187,9)	(188,40)	(63,1)	(-268,1)	(36,1)	(-135,1)	(278,1)	(51,1)	(400,1)	(-16,1)	(32,1)	(44,1)	
L1D -186>	(2,69)	(23,2)	(0,57)	(4,1)	(186,13)	(187,46)	(-2,12)	(184,8)	(44,2)	(185,33)	(315,1)	(484,1)	(188,13)	(1,6)	(-36,1)	(-269,1)	
L1D -185>	(139,1)	(185,16)	(124,2)	(39,19)	(117,2)	(-247,1)	(112,1)	(0,33)	(184,41)	(-65,10)	(130,3)	(273,1)	(186,38)	(76,1)	(-26,1)	(-8,1)	
L1D -184>	(0,76)	(-2,33)	(-104,2)	(92,2)	(183,18)	(8,3)	(-10,3)	(186,2)	(2,4)	(12,5)	(276,1)	(128,4)	(184,51)	(88,2)	(24,2)	(-42,1)	
L1D -183>	(183,10)	(0,39)	(184,42)	(182,44)	(-43,1)	(-18,1)	(36,1)	(1,5)	(372,2)	(-62,1)	(38,1)	(-138,1)	(180,2)	(409,1)	(-21,1)	(4,3)	
L1D -182>	(181,18)	(195,26)	(2,20)	(0,89)	(182,63)	(-104,15)	(-156,23)	(26,24)	(312,18)	(78,23)	(143,1)	(-52,29)	(65,35)	(-39,14)	(130,19)	(390,2)	
L1D -181>	(66,1)	(0,54)	(352,1)	(116,1)	(181,12)	(317,1)	(-64,1)	(180,42)	(182,36)	(287,1)	(71,1)	(41,1)	(42,1)	(283,1)	(77,1)	(-28,1)	
L1D -180>	(0,69)	(-2,14)	(180,44)	(92,1)	(-9,3)	(-96,2)	(179,8)	(20,1)	(156,3)	(181,7)	(72,2)	(124,1)	(9,2)	(90,1)	(171,1)	(-28,1)	
L1D -179>	(180,40)	(0,51)	(178,40)	(179,15)	(8,33)	(194,2)	(68,1)	(-29,1)	(420,1)	(-23,2)	(44,1)	(152,1)	(41,1)	(181,3)	(-2,1)	(-254,1)	
L1D -178>	(1,8)	(0,53)	(180,1)	(2,56)	(248,1)	(129,1)	(208,2)	(177,36)	(179,49)	(-2,16)	(204,2)	(20,1)	(178,20)	(126,1)	(-156,1)	(-142,1)	
L1D -177>	(177,11)	(0,33)	(176,42)	(178,50)	(1,6)	(172,2)	(-42,1)	(288,1)	(48,1)	(47,1)	(8,2)	(-20,1)	(49,1)	(50,1)	(54,1)	(30,1)	
L1D -176>	(-52,2)	(175,16)	(260,2)	(0,91)	(176,43)	(96,3)	(2,5)	(144,2)	(-4,1)	(52,2)	(-132,2)	(177,17)	(60,2)	(174,3)	(178,3)	(-2,35)	
L1D -175>	(0,39)	(-198,1)	(3,2)	(174,43)	(175,13)	(45,1)	(78,2)	(176,43)	(1,3)	(2,1)	(292,1)	(126,1)	(57,1)	(-21,1)	(28,1)	(-25,1)	
L1D -174>	(-44,1)	(173,40)	(2,68)	(-8,50)	(0,61)	(174,25)	(175,40)	(70,1)	(1,8)	(100,1)	(90,1)	(294,1)	(-2,17)	(176,16)	(53,1)	(-232,1)	
L1D -173>	(0,44)	(173,8)	(-43,1)	(1,13)	(63,1)	(174,36)	(-146,1)	(73,1)	(54,1)	(-31,1)	(172,46)	(433,1)	(-107,1)	(75,1)	(176,4)	(102,1)	
L1D -172>	(172,41)	(76,1)	(173,11)	(92,1)	(-76,1)	(0,67)	(48,1)	(260,1)	(171,13)	(168,1)	(200,1)	(164,1)	(56,2)	(-8,1)	(-2,33)	(2,3)	
L1D -171>	(-90,4)	(171,46)	(162,6)	(279,2)	(172,14)	(0,112)	(180,4)	(90,3)	(153,6)	(81,3)	(-10,4)	(99,2)	(170,13)	(27,1)	(-9,7)	(144,4)	
L1D -170>	(0,63)	(169,43)	(2,79)	(170,26)	(171,38)	(-44,1)	(-9,2)	(13,2)	(85,1)	(327,1)	(1,5)	(-2,24)	(224,1)	(4,4)	(55,2)	(172,11)	
L1D -169>	(0,74)	(78,11)	(-52,26)	(169,45)	(-91,23)	(170,15)	(52,11)	(130,21)	(168,1)	(13,28)	(26,14)	(260,21)	(364,5)	(286,19)	(-273,9)	(-182,14)	
L1D -168>	(232,4)	(0,119)	(168,84)	(2,7)	(140,5)	(200,1)	(8,2)	(244,4)	(48,3)	(167,29)	(169,22)	(166,6)	(4,2)	(-28,9)	(-2,50)	(32,6)	
L1D -167>	(78,1)	(0,42)	(166,47)	(168,48)	(401,1)	(167,15)	(18,3)	(59,2)	(-146,1)	(-36,1)	(75,1)	(-203,1)	(26,1)	(-32,1)	(162,1)	(-26,1)	
L1D -166>	(2,52)	(88,1)	(166,16)	(0,64)	(167,46)	(165,54)	(1,7)	(98,1)	(168,17)	(8,34)	(-56,1)	(180,2)	(392,1)	(48,2)	(-2,19)	(-236,1)	
L1D -165>	(164,50)	(165,11)	(0,42)	(162,1)	(19,2)	(103,1)	(163,1)	(1,10)	(166,40)	(-282,1)	(301,1)	(168,2)	(61,1)	(-147,1)	(-62,1)	(81,1)	
L1D -164>	(-60,1)	(165,26)	(164,68)	(-2,53)	(166,4)	(2,7)	(124,4)	(68,6)	(163,31)	(-16,4)	(8,2)	(0,122)	(108,3)	(172,2)	(44,7)	(184,3)	
L1D -163>	(0,54)	(163,13)	(162,49)	(1,3)	(-292,1)	(57,1)	(164,51)	(331,1)	(135,1)	(18,1)	(160,2)	(302,1)	(-63,1)	(-6,1)	(65,3)	(-148,1)	
L1D -162>	(351,2)	(-9,2)	(161,8)	(-90,2)	(162,31)	(117,2)	(2,9)	(-99,1)	(0,80)	(163,11)	(36,2)	(45,1)	(216,1)	(247,1)	(-2,5)	(90,2)	
L1D -161>	(159,1)	(160,50)	(0,51)	(1,8)	(161,16)	(-8,45)	(-10,2)	(20,3)	(-7,1)	(162,43)	(302,1)	(82,1)	(-25,1)	(-17,1)	(61,1)	(-112,1)	
L1D -160>	(161,19)	(159,20)	(160,55)	(464,3)	(0,93)	(-60,2)	(76,2)	(400,1)	(212,2)	(156,4)	(-2,31)	(136,1)	(2,8)	(192,2)	(200,6)	(64,2)	
L1D -159>	(158,51)	(-260,2)	(0,57)	(161,1)	(-143,2)	(-39,1)	(160,39)	(159,14)	(24,2)	(56,2)	(-65,2)	(338,1)	(22,1)	(1,8)	(169,11)	(-208,3)	
L1D -158>	(2,87)	(-2,18)	(80,1)	(157,52)	(160,10)	(158,12)	(0,81)	(159,47)	(26,1)	(-10,51)	(-1,19)	(342,1)	(-153,1)	(128,2)	(9,1)	(-84,1)	
L1D -157>	(0,56)	(156,51)	(157,14)	(159,3)	(158,46)	(82,1)	(53,1)	(-289,1)	(1,8)	(-34,1)	(68,1)	(-151,1)	(-39,1)	(454,1)	(37,3)	(73,2)	
L1D -156>	(0,119)	(156,67)	(13,11)	(-221,14)	(-2,27)	(78,13)	(-260,4)	(143,26)	(155,17)	(-104,12)	(117,19)	(91,24)	(52,35)	(-208,14)	(-13,18)	(136,1)	
L1D -155>	(154,52)	(155,20)	(0,47)	(86,1)	(-315,1)	(29,1)	(1,8)	(156,50)	(158,2)	(160,1)	(9,2)	(-35,2)	(-64,2)	(-40,1)	(455,1)	(-208,1)	
L1D -154>	(2,55)	(-45,1)	(153,54)	(154,14)	(103,1)	(137,1)	(-2,17)	(0,63)	(155,56)	(141,1)	(156,10)	(107,1)	(-44,1)	(16,1)	(-48,1)	(1,11)	
L1D -153>	(0,125)	(-162,3)	(27,2)	(144,4)	(72,3)	(8,11)	(-198,1)	(154,18)	(180,3)	(-9,10)	(153,54)	(162,3)	(81,3)	(-27,4)	(1,3)	(152,19)	
L1D -152>	(8,3)	(-240,2)	(12,1)	(0,127)	(216,3)	(-2,50)	(152,75)	(-88,3)	(151,37)	(236,3)	(100,4)	(150,4)	(92,3)	(224,3)	(76,4)	(460,1)	
L1D -151>	(150,55)	(151,16)	(0,46)	(153,2)	(62,1)	(152,48)	(1,7)	(28,1)	(14,1)	(72,2)	(94,2)	(463,1)	(-41,1)	(83,1)	(8,1)	(-34,1)	
L1D -150>	(144,2)	(2,74)	(7,3)	(0,65)	(150,22)	(148,3)	(149,58)	(348,1)	(1,5)	(152,6)	(-32,2)	(151,54)	(-2,21)	(227,1)	(313,1)	(368,2)	
L1D -149>	(0,40)	(-53,1)	(149,16)	(18,2)	(150,44)	(63,2)	(31,2)	(1,6)	(148,45)	(4,1)	(147,1)	(316,1)	(-67,1)	(32,1)	(75,1)	(310,1)	
L1D -148>	(32,1)	(-2,33)	(148,47)	(0,81)	(212,2)	(2,5)	(147,24)	(168,3)	(124,3)	(149,10)	(204,3)	(272,1)	(164,1)	(92,2)	(-8,4)	(24,1)	
L1D -147>	(0,47)	(146,56)	(1,8)	(94,1)	(60,2)	(148,53)	(17,1)	(147,14)	(149,3)	(35,1)	(-9,1)	(311,1)	(-159,1)	(93,1)	(469,1)	(44,2)	
L1D -146>	(2,67)	(145,74)	(148,23)	(-243,2)	(146,13)	(-2,23)	(-10,16)	(143,4)	(147,42)	(-8,7)	(0,74)	(48,2)	(112,1)	(-20,2)	(18,1)	(460,1)	
L1D -145>	(-32,1)	(0,55)	(145,13)	(146,48)	(446,1)	(70,1)	(-10,30)	(105,1)	(144,52)	(372,9)	(-298,1)	(-160,2)	(40,1)	(313,1)	(81,1)	(-44,2)	
L1D -144>	(-99,2)	(145,8)	(135,4)	(143,17)	(9,4)	(-2,21)	(0,120)	(-9,3)	(144,80)	(228,2)	(-220,1)	(-88,1)	(92,1)	(2,4)	(-36,2)	(232,1)	
L1D -143>	(142,23)	(-195,14)	(0,86)	(104,25)	(-143,38)	(169,27)	(-39,20)	(-130,11)	(-182,14)	(286,23)	(144,1)	(-78,24)	(-13,33)	(-91,11)	(-26,29)	(156,35)	
L1D -142>	(2,56)	(-2,17)	(0,71)	(144,15)	(-8,1)	(141,53)	(-10,21)	(143,62)	(372,2)	(452,1)	(152,1)	(142,16)	(39,1)	(80,1)	(1,3)	(-14,1)	
L1D -141>	(97,1)	(0,57)	(12,1)	(142,56)	(141,20)	(140,47)	(453,1)	(-81,1)	(56,2)	(144,2)	(-300,1)	(-69,1)	(49,2)	(68,1)	(98,2)	(477,1)	
L1D -140>	(304,2)	(0,78)	(-80,4)	(2,5)	(141,21)	(140,46)	(348,1)	(168,5)	(8,11)	(184,2)	(28,1)	(284,2)	(139,22)	(92,3)	(88,2)	(-2,30)	
L1D -139>	(138,59)	(139,13)	(140,43)	(1,7)	(0,53)	(102,1)	(84,1)	(318,1)	(9,2)	(100,1)	(17,2)	(197,1)	(69,1)	(117,2)	(8,1)	(241,1)	
L1D -138>	(-2,17)	(140,12)	(2,67)	(0,69)	(138,16)	(137,51)	(136,3)	(139,55)	(348,1)	(99,2)	(122,1)	(228,1)	(-302,1)	(-164,1)	(55,2)	(141,2)	
L1D -137>	(0,50)	(136,51)	(1,9)	(137,12)	(138,55)	(107,1)	(45,1)	(123,1)	(-63,1)	(76,2)	(321,1)	(-163,1)	(482,1)	(-214,1)	(18,2)	(139,1)	
L1D -136>	(0,82)	(180,2)	(160,2)	(28,3)	(137,22)	(124,3)	(8,5)	(132,2)	(360,1)	(332,2)	(12,1)	(-2,40)	(136,44)	(2,2)	(135,16)	(-32,1)	
L1D -135>	(0,78)	(134,13)	(135,31)	(9,3)	(108,1)	(-189,3)	(225,1)	(-22,1)	(1,1)	(-8,5)	(136,12)	(-9,5)	(126,3)	(-18,5)	(27,2)	(144,2)	
L1D -134>	(2,51)	(0,68)	(133,66)	(136,17)	(-2,18)	(135,58)	(134,15)	(144,1)	(-54,1)	(126,1)	(1,5)	(24,1)	(323,1)	(-166,1)	(59,1)	(18,1)	
L1D -133>	(132,71)	(26,2)	(133,7)	(-39,12)	(78,2)	(-13,4)	(134,48)	(-78,2)	(0,50)	(97,1)	(38,2)	(128,1)	(104,2)	(-117,1)	(1,8)	(68,1)	
L1D -132>	(132,32)	(0,69)	(130,3)	(-2,22)	(208,1)	(133,16)	(-32,2)	(-10,2)	(-92,7)	(131,27)	(-192,1)	(-112,2)	(-272,1)	(200,3)	(128,2)	(172,1)	
L1D -131>	(111,1)	(0,69)	(131,22)	(42,1)	(-156,1)	(65,2)	(132,54)	(110,1)	(130,66)	(-21,1)	(23,1)	(-47,2)	(5,1)	(325,1)	(108,1)	(-31,2)	
L1D -130>	(2,26)	(78,35)	(129,22)	(0,76)	(-117,18)	(34,1)	(39,34)	(-208,18)	(131,20)	(130,40)	(182,17)	(-65,21)	(26,24)	(377,12)	(-130,13)	(-13,27)	
L1D -129>	(128,71)	(2,2)	(0,51)	(-8,2)	(-3,2)	(130,55)	(101,1)	(69,2)	(129,12)	(10,5)	(1,3)	(326,1)	(63,2)	(-17,1)	(24,1)	(131,3)	
L1D -128>	(128,73)	(129,22)	(108,3)	(-100,4)	(0,105)	(-2,48)	(-32,3)	(-72,4)	(80,3)	(103,1)	(68,3)	(127,34)	(126,5)	(2,7)	(-40,4)	(132,5)	
L1D -127>	(8,15)	(0,64)	(113,1)	(1,11)	(64,2)	(127,9)	(126,69)	(-28,1)	(128,46)	(92,1)	(-128,2)	(12,2)	(7,1)	(337,1)	(97,1)	(-5,1)	
L1D -126>	(-63,2)	(0,75)	(126,34)	(2,11)	(18,1)	(36,1)	(125,11)	(-18,1)	(128,2)	(-9,2)	(-2,2)	(127,7)	(108,2)	(9,3)	(171,1)	(-32,1)	
L1D -125>	(0,55)	(121,1)	(124,66)	(10,1)	(126,55)	(169,1)	(1,7)	(125,13)	(-29,3)	(134,1)	(-187,1)	(15,2)	(70,1)	(127,2)	(-7,2)	(3,1)	
L1D -124>	(0,107)	(124,57)	(-2,43)	(372,3)	(108,1)	(52,2)	(68,2)	(92,1)	(136,2)	(2,7)	(8,3)	(-216,2)	(-136,2)	(160,2)	(123,30)	(88,3)	
L1D -123>	(0,73)	(112,1)	(122,61)	(185,1)	(123,16)	(-1,1)	(2,1)	(71,3)	(124,49)	(1,7)	(83,1)	(16,2)	(-3,1)	(5,1)	(6,2)	(27,1)	
L1D -122>	(0,82)	(122,25)	(2,78)	(-2,19)	(72,2)	(-8,6)	(1,6)	(124,15)	(121,60)	(117,1)	(380,1)	(123,63)	(120,5)	(96,4)	(-173,1)	(-29,1)	
L1D -121>	(0,66)	(120,75)	(121,20)	(122,57)	(1,7)	(-48,1)	(117,2)	(-315,1)	(17,1)	(-4,1)	(8,3)	(123,4)	(-6,2)	(-18,1)	(41,1)	(42,1)	
L1D -120>	(0,86)	(416,3)	(2,6)	(15,1)	(28,2)	(-2,39)	(104,2)	(172,3)	(-20,2)	(-76,3)	(118,3)	(120,70)	(200,2)	(119,35)	(-140,1)	(-36,5)	
L1D -119>	(0,73)	(119,10)	(8,1)	(118,75)	(120,51)	(54,1)	(70,1)	(145,1)	(-10,11)	(1,11)	(5,2)	(72,1)	(19,1)	(-5,2)	(11,2)	(30,2)	
L1D -118>	(119,62)	(352,2)	(2,57)	(120,13)	(0,91)	(117,67)	(32,3)	(118,24)	(1,8)	(-2,20)	(121,3)	(-160,2)	(12,3)	(-52,2)	(8,1)	(73,2)	
L1D -117>	(0,90)	(78,12)	(-13,10)	(117,56)	(-143,7)	(116,9)	(-9,8)	(65,10)	(14,1)	(52,9)	(-65,10)	(325,9)	(91,5)	(-52,14)	(273,2)	(156,10)	
L1D -116>	(116,69)	(0,110)	(4,1)	(2,11)	(115,30)	(118,3)	(114,5)	(-2,47)	(117,20)	(88,2)	(60,3)	(276,2)	(256,2)	(-240,2)	(48,3)	(152,4)	
L1D -115>	(116,57)	(114,86)	(0,53)	(115,16)	(1,3)	(117,3)	(12,1)	(58,1)	(72,2)	(123,1)	(61,2)	(17,2)	(335,1)	(27,1)	(-19,1)	(15,1)	
L1D -114>	(-124,2)	(0,95)	(-2,18)	(1,1)	(113,83)	(112,5)	(2,70)	(23,3)	(116,15)	(114,26)	(183,1)	(456,1)	(180,1)	(59,1)	(8,29)	(115,62)	
L1D -113>	(0,74)	(-69,2)	(113,18)	(20,2)	(37,3)	(112,67)	(39,3)	(187,1)	(62,1)	(9,3)	(124,1)	(-6,2)	(11,2)	(-62,1)	(1,9)	(114,61)	
L1D -112>	(120,2)	(112,74)	(-2,47)	(0,110)	(352,3)	(116,3)	(228,5)	(114,4)	(21,1)	(168,2)	(-116,2)	(113,22)	(44,2)	(111,30)	(2,10)	(80,4)	
L1D -111>	(0,68)	(67,2)	(-15,1)	(110,67)	(111,18)	(153,2)	(112,61)	(1,7)	(12,3)	(113,2)	(-71,1)	(-36,1)	(46,1)	(-58,1)	(-5,1)	(13,4)	
L1D -110>	(0,91)	(22,1)	(395,1)	(440,1)	(17,2)	(109,86)	(-2,27)	(112,25)	(2,96)	(110,27)	(-18,2)	(111,62)	(86,2)	(66,1)	(130,1)	(108,5)	
L1D -109>	(48,2)	(23,1)	(0,60)	(83,1)	(-8,47)	(108,95)	(87,1)	(58,2)	(109,16)	(110,55)	(67,1)	(19,1)	(-64,1)	(1,8)	(-72,1)	(79,2)	
L1D -108>	(108,65)	(0,123)	(107,18)	(207,2)	(63,4)	(-2,17)	(28,1)	(4,1)	(-316,1)	(96,1)	(-9,4)	(52,1)	(338,1)	(109,12)	(-176,1)	(2,5)	
L1D -107>	(0,80)	(106,86)	(72,2)	(1,11)	(-26,24)	(107,4)	(143,3)	(108,62)	(65,2)	(-12,1)	(109,6)	(99,1)	(86,1)	(-8,23)	(-234,1)	(-156,1)	
L1D -106>	(107,63)	(80,2)	(0,87)	(108,12)	(105,84)	(2,59)	(109,2)	(106,31)	(-52,2)	(-10,22)	(29,1)	(14,2)	(-65,1)	(73,2)	(-2,11)	(48,2)	
L1D -105>	(104,90)	(0,66)	(-13,1)	(43,1)	(105,20)	(92,2)	(106,59)	(195,1)	(67,2)	(31,2)	(1,8)	(15,2)	(-1,1)	(-182,1)	(-73,1)	(82,1)	
L1D -104>	(104,64)	(0,110)	(103,25)	(-65,26)	(182,15)	(13,18)	(105,1)	(39,18)	(-13,25)	(312,2)	(117,27)	(-2,38)	(-26,18)	(65,24)	(91,26)	(130,21)	
L1D -103>	(0,80)	(128,1)	(103,21)	(205,1)	(45,1)	(1,9)	(102,92)	(104,57)	(72,1)	(2,3)	(152,1)	(22,1)	(-2,1)	(5,2)	(348,1)	(89,1)	
L1D -102>	(103,61)	(7,4)	(101,76)	(0,95)	(102,34)	(-2,22)	(-6,3)	(2,72)	(-234,20)	(10,2)	(100,4)	(-8,1)	(42,1)	(104,26)	(20,1)	(268,1)	
L1D -101>	(0,62)	(102,71)	(99,3)	(31,1)	(100,84)	(198,1)	(1,11)	(103,3)	(-59,1)	(81,2)	(7,3)	(8,28)	(154,1)	(101,13)	(-12,3)	(21,2)	
L1D -100>	(102,4)	(96,4)	(0,124)	(24,5)	(44,5)	(101,22)	(2,11)	(100,71)	(99,41)	(-2,49)	(32,1)	(216,2)	(-108,2)	(4,7)	(240,2)	(244,2)	
L1D -99>	(54,3)	(0,126)	(99,69)	(-54,2)	(180,4)	(117,3)	(98,27)	(-9,8)	(-36,2)	(100,19)	(-261,2)	(1,2)	(9,6)	(333,1)	(-117,6)	(81,2)	
L1D -98>	(-80,2)	(34,2)	(2,73)	(0,89)	(99,75)	(97,116)	(-2,29)	(100,20)	(-216,1)	(98,23)	(-260,1)	(24,3)	(21,2)	(276,1)	(160,2)	(292,1)	
L1D -97>	(1,10)	(0,68)	(96,89)	(97,14)	(12,3)	(98,70)	(35,1)	(23,2)	(8,2)	(-6,3)	(14,2)	(19,3)	(-97,1)	(-194,1)	(-332,1)	(352,1)	
L1D -96>	(95,31)	(-2,34)	(97,25)	(304,2)	(332,2)	(-40,1)	(268,1)	(0,92)	(96,56)	(94,3)	(8,2)	(104,3)	(-132,2)	(72,1)	(-72,2)	(172,2)	
L1D -95>	(47,3)	(96,79)	(4,6)	(94,84)	(39,1)	(0,70)	(121,1)	(1,16)	(95,19)	(-58,1)	(23,3)	(48,2)	(52,1)	(82,2)	(17,2)	(18,2)	
L1D -94>	(2,96)	(96,19)	(144,2)	(0,115)	(94,25)	(-2,33)	(92,3)	(91,1)	(93,111)	(52,3)	(-182,1)	(95,56)	(260,18)	(78,2)	(-312,1)	(209,1)	
L1D -93>	(0,82)	(94,67)	(92,117)	(-10,17)	(93,21)	(44,1)	(210,1)	(11,2)	(-333,1)	(377,1)	(-19,3)	(1,12)	(24,2)	(126,2)	(-6,3)	(-334,1)	
L1D -92>	(0,109)	(-2,45)	(93,19)	(45,1)	(92,90)	(94,6)	(90,2)	(220,3)	(2,11)	(140,2)	(222,1)	(91,40)	(-312,2)	(68,2)	(36,1)	(-20,4)	
L1D -91>	(78,21)	(39,18)	(90,25)	(92,20)	(91,35)	(0,67)	(156,14)	(50,1)	(273,8)	(-26,11)	(-104,12)	(169,24)	(351,9)	(312,7)	(-221,5)	(-65,16)	
L1D -90>	(90,43)	(0,97)	(91,12)	(-81,3)	(89,19)	(92,4)	(9,3)	(-18,3)	(2,9)	(-72,2)	(108,4)	(51,1)	(-261,1)	(-90,1)	(-2,2)	(81,3)	
L1D -89>	(90,71)	(89,25)	(0,64)	(88,112)	(1,12)	(54,1)	(217,1)	(91,5)	(81,2)	(188,1)	(57,1)	(-16,3)	(-67,2)	(87,1)	(19,2)	(25,3)	
L1D -88>	(89,18)	(0,78)	(90,3)	(2,4)	(-2,32)	(388,2)	(-28,2)	(8,10)	(86,3)	(112,2)	(180,5)	(36,3)	(220,2)	(56,1)	(87,38)	(88,56)	
L1D -87>	(66,1)	(0,90)	(86,102)	(62,2)	(88,72)	(108,1)	(6,1)	(-6,1)	(87,23)	(59,1)	(56,1)	(-17,2)	(-3,1)	(7,2)	(27,1)	(1,12)	
L1D -86>	(0,105)	(-2,27)	(2,71)	(87,65)	(8,10)	(84,3)	(85,97)	(-124,1)	(-416,1)	(86,35)	(-3,2)	(219,1)	(5,1)	(109,2)	(10,6)	(88,23)	
L1D -85>	(-48,2)	(0,93)	(86,71)	(84,104)	(72,1)	(20,4)	(67,1)	(85,17)	(14,1)	(75,1)	(146,1)	(1,11)	(33,1)	(-15,1)	(88,4)	(-339,1)	
L1D -84>	(196,4)	(180,3)	(82,3)	(0,89)	(85,29)	(76,1)	(84,41)	(48,2)	(-4,1)	(-176,2)	(-2,30)	(-72,3)	(83,35)	(4,3)	(2,5)	(-48,1)	
L1D -83>	(-14,2)	(0,109)	(83,30)	(1,7)	(-8,27)	(84,79)	(82,112)	(78,1)	(124,1)	(87,2)	(6,2)	(-126,1)	(210,1)	(-54,2)	(43,1)	(34,1)	
L1D -82>	(0,98)	(84,14)	(81,111)	(-2,16)	(2,67)	(1,20)	(50,1)	(83,74)	(82,31)	(-182,2)	(-3,4)	(14,5)	(-20,2)	(10,8)	(20,5)	(-8,6)	
L1D -81>	(0,108)	(-18,9)	(80,32)	(82,20)	(81,46)	(-108,2)	(-27,5)	(171,3)	(18,2)	(-54,3)	(-99,6)	(-90,2)	(-9,7)	(10,1)	(90,2)	(153,1)	
L1D -80>	(168,2)	(-10,2)	(81,24)	(-2,25)	(152,2)	(0,73)	(-84,2)	(80,41)	(3,1)	(392,1)	(40,1)	(-12,3)	(79,33)	(-24,2)	(372,1)	(240,1)	
L1D -79>	(80,83)	(79,25)	(0,96)	(78,120)	(31,2)	(4,1)	(112,1)	(136,1)	(20,1)	(8,3)	(63,2)	(13,1)	(216,1)	(1,30)	(-22,2)	(-8,2)	
L1D -78>	(79,5)	(-1,2)	(8,1)	(2,10)	(0,65)	(-13,19)	(-299,4)	(77,32)	(13,14)	(-26,22)	(182,15)	(-104,7)	(78,39)	(-39,12)	(-2,10)	(156,12)	
L1D -77>	(0,104)	(76,124)	(77,20)	(10,1)	(-8,23)	(78,71)	(228,1)	(35,2)	(86,2)	(-93,1)	(23,1)	(74,3)	(25,1)	(-18,2)	(29,2)	(45,1)	
L1D -76>	(76,59)	(0,92)	(-2,34)	(-100,3)	(204,4)	(77,24)	(44,3)	(-68,2)	(75,48)	(4,2)	(92,3)	(152,2)	(52,3)	(74,2)	(78,2)	(-4,1)	
L1D -75>	(0,45)	(8,18)	(78,1)	(1,11)	(4,0)	(12,1)	(76,43)	(74,65)	(10,2)	(14,0)	(75,13)	(37,3)	(20,1)	(98,0)	(96,0)	(25,1)	
L1D -74>	(0,64)	(74,17)	(2,43)	(73,72)	(19,1)	(75,49)	(1,7)	(192,1)	(336,1)	(35,1)	(76,7)	(3,1)	(-40,1)	(30,2)	(-2,1)	(54,1)	
L1D -73>	(0,49)	(74,40)	(72,65)	(73,16)	(-4,1)	(24,1)	(78,1)	(-48,1)	(-31,1)	(2,1)	(-24,1)	(1,6)	(7,1)	(32,2)	(27,1)	(5,2)	
L1D -72>	(352,2)	(0,81)	(72,36)	(73,11)	(-18,3)	(-9,4)	(28,1)	(232,1)	(279,1)	(27,1)	(172,1)	(-2,10)	(184,1)	(8,4)	(-20,1)	(71,19)	
L1D -71>	(0,57)	(9,3)	(70,67)	(11,1)	(71,14)	(-76,1)	(72,39)	(-6,1)	(87,1)	(1,11)	(73,2)	(-33,1)	(116,1)	(25,2)	(67,1)	(34,1)	
L1D -70>	(-2,15)	(0,86)	(30,1)	(2,50)	(4,2)	(1,11)	(3,1)	(69,62)	(70,20)	(71,46)	(17,1)	(-8,12)	(-34,1)	(-7,1)	(6,3)	(-4,1)	
L1D -69>	(38,1)	(0,64)	(69,13)	(22,1)	(8,5)	(70,47)	(68,89)	(1,12)	(14,1)	(-30,1)	(30,2)	(-19,1)	(45,1)	(18,1)	(57,1)	(-10,1)	
L1D -68>	(-2,22)	(0,65)	(-96,2)	(12,3)	(70,3)	(192,1)	(80,2)	(68,39)	(60,1)	(112,1)	(2,7)	(-56,3)	(116,1)	(40,1)	(67,30)	(-48,2)	
L1D -67>	(0,87)	(68,47)	(9,2)	(-10,18)	(1,4)	(66,78)	(67,13)	(41,1)	(11,1)	(20,1)	(60,1)	(-24,2)	(8,4)	(372,1)	(34,1)	(-8,3)	
L1D -66>	(-12,21)	(2,42)	(-2,11)	(67,37)	(66,24)	(42,1)	(0,62)	(65,79)	(132,1)	(68,16)	(1,12)	(12,1)	(-7,1)	(-9,1)	(39,1)	(133,1)	
L1D -65>	(-26,20)	(65,62)	(0,97)	(247,24)	(64,44)	(16,1)	(286,15)	(-91,17)	(-156,12)	(-117,19)	(117,34)	(-286,6)	(299,10)	(130,19)	(-195,14)	(-104,29)	
L1D -64>	(4,2)	(62,3)	(0,99)	(65,32)	(2,8)	(63,55)	(8,2)	(64,44)	(-2,39)	(116,2)	(236,3)	(-52,3)	(-32,3)	(-35,1)	(66,2)	(44,4)	
L1D -63>	(64,20)	(-9,6)	(-27,3)	(62,38)	(297,1)	(0,109)	(63,48)	(1,1)	(54,2)	(-18,3)	(216,2)	(-72,1)	(14,1)	(-17,1)	(-180,1)	(45,4)	
L1D -62>	(63,55)	(8,13)	(62,26)	(1,9)	(2,43)	(-9,2)	(61,83)	(0,79)	(-124,1)	(-2,4)	(64,8)	(31,1)	(-10,1)	(16,3)	(60,1)	(7,2)	
L1D -61>	(62,57)	(1,8)	(0,69)	(61,20)	(60,93)	(-36,1)	(-11,13)	(24,1)	(66,1)	(7,6)	(42,1)	(-61,1)	(121,1)	(-27,1)	(-10,3)	(-20,1)	
L1D -60>	(0,111)	(2,11)	(60,72)	(32,3)	(20,1)	(-2,41)	(224,1)	(-68,2)	(12,4)	(61,26)	(84,1)	(59,52)	(116,4)	(62,1)	(108,2)	(36,5)	
L1D -59>	(60,43)	(-37,1)	(0,95)	(58,87)	(62,2)	(-16,1)	(468,1)	(18,3)	(1,11)	(59,19)	(15,3)	(54,2)	(48,1)	(24,1)	(28,2)	(118,1)	
L1D -58>	(0,12)	(60,1)	(2,2)	(-2,2)	(59,3)	(57,12)	(4,23)	(12,2)	(195,1)	(260,1)	(18,1)	(-7,100)	(58,1)	(42,1)	(-52,1)	(61,1)	
L1D -57>	(0,70)	(57,17)	(-38,1)	(56,105)	(58,55)	(7,6)	(11,3)	(-8,31)	(75,3)	(-113,1)	(35,2)	(39,1)	(41,1)	(20,2)	(22,3)	(1,11)	
L1D -56>	(0,68)	(56,44)	(-2,31)	(2,7)	(124,2)	(-7,7)	(-36,3)	(55,38)	(88,1)	(5,1)	(57,23)	(54,3)	(-28,2)	(-376,1)	(300,1)	(24,3)	
L1D -55>	(0,78)	(-8,5)	(-7,25)	(-1,8)	(55,28)	(54,105)	(56,63)	(24,4)	(12,5)	(7,4)	(13,2)	(286,3)	(-130,2)	(-40,1)	(1,11)	(23,1)	
L1D -54>	(0,77)	(56,3)	(55,12)	(-20,1)	(2,12)	(54,27)	(53,30)	(1,4)	(36,2)	(306,1)	(-234,1)	(-9,3)	(-10,5)	(-2,3)	(9,1)	(-45,1)	
L1D -53>	(0,67)	(54,73)	(1,19)	(53,23)	(125,1)	(15,2)	(52,121)	(9,4)	(-10,1)	(-20,1)	(11,4)	(19,2)	(55,7)	(24,2)	(43,1)	(-16,1)	
L1D -52>	(52,76)	(0,110)	(-130,20)	(195,8)	(-78,16)	(-96,1)	(51,39)	(-234,7)	(65,23)	(-52,17)	(91,18)	(-2,41)	(234,3)	(143,15)	(117,29)	(39,19)	
L1D -51>	(19,5)	(20,2)	(50,115)	(0,82)	(52,68)	(1,11)	(90,1)	(23,5)	(51,19)	(-9,1)	(34,1)	(48,2)	(29,1)	(15,3)	(27,1)	(45,1)	
L1D -50>	(0,75)	(2,50)	(6,6)	(52,14)	(50,32)	(10,2)	(-2,9)	(21,1)	(24,6)	(49,95)	(-20,3)	(51,62)	(20,3)	(154,1)	(30,1)	(19,3)	
L1D -49>	(51,6)	(48,124)	(0,80)	(25,3)	(19,1)	(1,7)	(94,1)	(50,62)	(27,1)	(-3,3)	(21,2)	(49,19)	(24,3)	(41,3)	(5,1)	(8,38)	
L1D -48>	(7,127)	(0,47)	(2,4)	(49,16)	(72,19)	(48,36)	(-7,2)	(47,24)	(100,2)	(-2,11)	(84,2)	(-45,1)	(21,1)	(20,2)	(46,1)	(27,1)	
L1D -47>	(0,47)	(1,10)	(46,83)	(-1,1)	(3,2)	(26,1)	(47,14)	(48,45)	(9,3)	(-150,1)	(14,1)	(22,1)	(35,1)	(36,1)	(6,1)	(8,2)	
L1D -46>	(-2,2)	(-12,69)	(0,13)	(-39,1)	(65,1)	(45,6)	(-291,0)	(44,0)	(144,0)	(-428,0)	(47,5)	(8,0)	(-46,1)	(2,0)	(46,1)	(1,2)	
L1D -45>	(5,8)	(46,12)	(44,19)	(0,106)	(-27,3)	(9,2)	(11,29)	(-28,1)	(47,1)	(45,19)	(-9,1)	(18,1)	(297,1)	(27,2)	(-46,1)	(-18,3)	
L1D -44>	(-8,9)	(46,2)	(44,52)	(0,90)	(45,25)	(52,2)	(42,8)	(-264,2)	(-2,31)	(94,1)	(76,1)	(16,4)	(-12,21)	(-124,5)	(-64,1)	(43,62)	
L1D -43>	(1,12)	(0,62)	(-12,24)	(22,2)	(45,6)	(-29,1)	(5,4)	(43,14)	(27,1)	(57,2)	(42,81)	(30,2)	(46,2)	(44,55)	(25,4)	(-8,2)	
L1D -42>	(2,41)	(0,84)	(41,112)	(-5,4)	(1,6)	(42,37)	(43,52)	(8,2)	(40,3)	(13,2)	(-7,4)	(-2,14)	(27,2)	(44,13)	(66,1)	(31,1)	
L1D -41>	(67,1)	(0,59)	(1,19)	(-10,9)	(-6,1)	(24,1)	(-47,1)	(13,1)	(41,17)	(42,52)	(40,102)	(33,1)	(2,4)	(21,2)	(20,2)	(43,3)	
L1D -40>	(40,58)	(41,35)	(0,92)	(-1,20)	(2,6)	(39,64)	(36,2)	(-140,3)	(68,1)	(-164,2)	(92,6)	(196,1)	(-2,29)	(-7,1)	(42,3)	(152,2)	
L1D -39>	(-1,4)	(0,99)	(40,44)	(26,25)	(38,67)	(-31,1)	(78,32)	(39,83)	(117,26)	(-65,38)	(260,10)	(-338,8)	(-26,23)	(-78,18)	(-117,13)	(-169,7)	
L1D -38>	(0,21)	(-7,71)	(4,31)	(2,9)	(38,8)	(37,24)	(-4,14)	(69,1)	(39,16)	(1,7)	(12,5)	(40,1)	(-1,16)	(-2,4)	(63,1)	(22,1)	
L1D -37>	(2,7)	(0,90)	(3,2)	(1,27)	(38,69)	(36,123)	(-6,3)	(37,26)	(95,1)	(22,2)	(44,1)	(9,2)	(17,2)	(7,3)	(21,3)	(28,2)	
L1D -36>	(36,80)	(0,117)	(297,1)	(37,22)	(34,3)	(35,46)	(8,10)	(-18,5)	(261,2)	(-9,10)	(92,2)	(1,10)	(108,5)	(18,6)	(27,4)	(-2,18)	
L1D -35>	(14,17)	(0,74)	(-4,6)	(-1,6)	(5,44)	(36,50)	(17,2)	(98,1)	(38,1)	(7,2)	(35,22)	(37,3)	(1,19)	(6,23)	(118,1)	(34,92)	
L1D -34>	(0,52)	(14,117)	(36,6)	(33,92)	(17,11)	(1,11)	(2,26)	(34,18)	(-55,1)	(8,3)	(35,43)	(7,1)	(29,1)	(-2,5)	(-4,4)	(-9,2)	
L1D -33>	(0,35)	(35,3)	(148,1)	(32,74)	(22,1)	(33,11)	(-8,1)	(6,2)	(1,9)	(28,1)	(81,1)	(34,34)	(3,1)	(16,3)	(20,1)	(2,2)	
L1D -32>	(0,74)	(32,41)	(33,31)	(2,6)	(31,48)	(-2,17)	(12,2)	(100,1)	(34,2)	(16,7)	(24,1)	(66,1)	(-56,2)	(3,2)	(1,11)	(20,1)	
L1D -31>	(-10,3)	(0,73)	(16,6)	(30,91)	(7,2)	(-57,1)	(3,4)	(31,27)	(73,1)	(15,8)	(1,18)	(-16,2)	(9,4)	(35,2)	(-8,14)	(32,55)	
L1D -30>	(-39,1)	(0,51)	(2,21)	(31,33)	(29,69)	(30,20)	(15,6)	(1,9)	(28,1)	(13,2)	(32,7)	(-2,4)	(-19,1)	(25,3)	(43,1)	(-14,1)	
L1D -29>	(28,73)	(1,12)	(0,40)	(4,3)	(6,3)	(30,43)	(2,5)	(29,11)	(14,6)	(107,1)	(-62,1)	(15,5)	(-13,1)	(3,1)	(-25,1)	(19,1)	
L1D -28>	(0,92)	(29,37)	(28,51)	(1,10)	(-8,4)	(27,69)	(12,5)	(116,2)	(-172,3)	(2,8)	(14,5)	(5,4)	(-2,21)	(72,1)	(4,3)	(26,4)	
L1D -27>	(0,83)	(-41,1)	(28,25)	(27,50)	(-234,1)	(45,4)	(26,45)	(63,2)	(1,7)	(9,4)	(-27,9)	(-9,7)	(-18,4)	(13,3)	(14,3)	(18,3)	
L1D -26>	(25,28)	(2,7)	(26,13)	(52,11)	(1,4)	(-12,115)	(0,36)	(-340,1)	(-8,6)	(-13,7)	(13,10)	(65,4)	(39,13)	(-15,1)	(27,12)	(-169,5)	
L1D -25>	(3,108)	(0,66)	(26,57)	(1,56)	(24,102)	(13,6)	(-42,1)	(12,12)	(9,5)	(5,62)	(25,31)	(27,8)	(44,1)	(28,2)	(2,38)	(22,1)	
L1D -24>	(24,36)	(0,71)	(-2,20)	(23,59)	(25,34)	(2,29)	(12,12)	(-80,2)	(3,3)	(-16,3)	(-256,6)	(1,58)	(-76,1)	(22,4)	(4,7)	(-264,1)	
L1D -23>	(3,126)	(-43,1)	(0,102)	(-2,22)	(23,19)	(11,8)	(1,103)	(10,2)	(22,86)	(24,48)	(-1,110)	(2,5)	(-5,2)	(6,1)	(8,5)	(42,23)	
L1D -22>	(4,6)	(0,20)	(1,5)	(-3,107)	(16,57)	(22,8)	(-1,32)	(21,23)	(-7,2)	(2,53)	(-136,1)	(11,3)	(-2,1)	(23,11)	(-47,1)	(9,2)	
L1D -21>	(11,7)	(20,68)	(-6,23)	(0,42)	(10,9)	(-1,2)	(19,12)	(22,35)	(21,15)	(1,11)	(4,2)	(23,5)	(-5,2)	(-18,27)	(24,1)	(54,1)	
L1D -20>	(-2,23)	(36,3)	(0,101)	(-58,3)	(19,86)	(30,1)	(1,18)	(21,48)	(-364,11)	(2,13)	(20,62)	(10,21)	(-18,14)	(18,1)	(-3,6)	(-6,8)	
L1D -19>	(18,106)	(0,93)	(20,69)	(1,26)	(19,30)	(2,11)	(3,7)	(-106,1)	(10,14)	(7,3)	(11,8)	(-2,4)	(9,11)	(6,6)	(5,9)	(21,6)	
L1D -18>	(38,64)	(18,44)	(2,3)	(0,75)	(12,5)	(4,11)	(-9,5)	(27,3)	(9,15)	(-81,2)	(1,10)	(-7,20)	(48,1)	(19,29)	(20,4)	(17,45)	
L1D -17>	(16,43)	(-2,78)	(0,24)	(18,27)	(17,7)	(3,2)	(6,1)	(23,105)	(-71,1)	(1,6)	(64,1)	(-11,2)	(9,2)	(8,8)	(-9,1)	(5,12)	
L1D -16>	(-70,1)	(0,119)	(16,60)	(1,30)	(-3,3)	(15,112)	(7,7)	(2,10)	(-2,19)	(8,23)	(17,62)	(3,16)	(6,3)	(14,8)	(4,10)	(24,6)	
L1D -15>	(7,115)	(116,1)	(0,28)	(-1,3)	(10,22)	(14,39)	(16,26)	(-10,3)	(1,11)	(31,2)	(15,18)	(-9,1)	(18,1)	(-4,3)	(17,2)	(-6,1)	
L1D -14>	(1,17)	(0,50)	(2,21)	(15,42)	(14,22)	(13,72)	(117,1)	(5,3)	(-5,7)	(7,10)	(-2,3)	(6,3)	(3,5)	(-4,3)	(16,3)	(-3,1)	
L1D -13>	(13,76)	(15,16)	(14,0)	(-10,0)	(16,0)	(6,0)	(5,4)	(2,0)	(0,3)	(3,0)	(7,8)	(23,0)	(-3,0)	(12,0)	(10,0)	(-16,0)	
L1D -12>	(0,35)	(12,21)	(-1,118)	(-73,1)	(4,24)	(-4,18)	(1,9)	(3,5)	(7,98)	(13,23)	(11,42)	(-7,116)	(6,6)	(-2,45)	(5,4)	(14,2)	
L1D -11>	(11,46)	(19,97)	(4,16)	(7,2)	(12,18)	(17,0)	(1,0)	(-1,1)	(27,0)	(3,24)	(0,2)	(-7,21)	(5,3)	(-13,0)	(6,4)	(10,2)	
L1D -10>	(-4,60)	(0,75)	(6,3)	(3,4)	(2,26)	(77,1)	(1,24)	(-7,15)	(10,48)	(-11,36)	(8,27)	(9,86)	(11,28)	(5,16)	(-6,9)	(-3,14)	
L1D -9>	(8,60)	(0,94)	(-27,7)	(-5,14)	(198,1)	(18,7)	(-9,13)	(1,14)	(10,36)	(4,15)	(2,6)	(-1,20)	(-7,26)	(-12,20)	(-18,5)	(9,55)	
L1D -8>	(96,1)	(-4,87)	(0,25)	(8,31)	(220,1)	(204,1)	(15,0)	(5,0)	(14,0)	(-5,0)	(3,1)	(-132,0)	(19,0)	(-11,37)	(7,0)	(-10,0)	
L1D -7>	(-77,1)	(16,1)	(0,5)	(5,1)	(-4,0)	(11,77)	(4,1)	(6,2)	(-11,0)	(19,93)	(1,1)	(30,0)	(3,2)	(8,0)	(-3,0)	(23,0)	
L1D -6>	(0,64)	(2,12)	(11,7)	(6,125)	(7,25)	(-5,13)	(8,3)	(-8,6)	(42,2)	(-7,26)	(5,27)	(9,18)	(-12,7)	(1,17)	(428,1)	(3,10)	
L1D -5>	(10,93)	(6,30)	(5,25)	(-5,3)	(11,50)	(0,69)	(7,3)	(14,12)	(-6,8)	(47,3)	(4,26)	(-1,13)	(16,18)	(1,11)	(-3,10)	(-7,1)	
L1D -4>	(12,44)	(4,102)	(-296,1)	(-118,1)	(0,2)	(-79,1)	(79,1)	(-1,0)	(20,0)	(-2,2)	(-7,115)	(-60,0)	(5,0)	(75,0)	(3,0)	(-94,0)	
L1D -3>	(6,11)	(16,10)	(0,41)	(3,10)	(10,2)	(5,10)	(8,5)	(2,12)	(-1,8)	(4,39)	(1,14)	(12,84)	(-2,2)	(19,63)	(9,3)	(39,1)	
L1D -2>	(350,1)	(2,124)	(-194,1)	(0,9)	(288,1)	(186,1)	(58,1)	(-234,1)	(222,1)	(172,1)	(-22,2)	(-8,22)	(-218,1)	(-14,1)	(3,2)	(25,2)	
L1D -1>	(-11,53)	(-104,1)	(2,3)	(0,75)	(10,1)	(-1,93)	(1,5)	(-7,1)	(-12,2)	(-31,1)	(11,1)	(4,2)	(3,3)	(-2,1)	(-24,1)	(-3,1)	
L1D 0>	(38,0)	(0,66)	(-11,7)	(-1,0)	(236,0)	(-56,0)	(78,0)	(-228,0)	(-80,0)	(156,0)	(27,0)	(144,0)	(76,0)	(-204,0)	(-2,10)	(10,0)	
L1D 1>	(1,104)	(2,6)	(-2,11)	(-18,1)	(3,25)	(-1,25)	(-10,1)	(5,3)	(-19,1)	(-8,1)	(-5,4)	(-7,4)	(-6,3)	(-3,2)	(0,8)	(-4,5)	
L1D 2>	(-34,0)	(-46,0)	(-1,1)	(-2,51)	(-15,1)	(170,0)	(200,0)	(0,67)	(-176,0)	(1,3)	(-76,0)	(-198,0)	(178,0)	(-4,0)	(-52,0)	(152,1)	
L1D 3>	(22,52)	(3,18)	(-9,4)	(-46,14)	(0,8)	(11,60)	(-3,25)	(77,1)	(2,5)	(1,14)	(-1,9)	(-58,14)	(8,67)	(14,18)	(-2,14)	(5,6)	
L1D 4>	(-62,1)	(-4,125)	(60,1)	(182,1)	(-10,1)	(75,1)	(14,0)	(3,1)	(-1,0)	(-3,0)	(-5,0)	(1,0)	(36,0)	(0,0)	(13,0)	(388,0)	
L1D 5>	(1,25)	(11,11)	(0,82)	(-5,107)	(-1,17)	(-4,70)	(-6,15)	(8,27)	(-10,10)	(5,20)	(-8,10)	(-17,74)	(14,1)	(-11,46)	(6,102)	(2,20)	
L1D 6>	(4,1)	(-13,25)	(8,2)	(-12,2)	(-1,4)	(-2,1)	(0,10)	(10,36)	(-11,32)	(-6,113)	(1,11)	(6,3)	(-4,6)	(-5,39)	(2,1)	(35,1)	
L1D 7>	(42,23)	(41,95)	(0,19)	(-7,88)	(1,14)	(-8,119)	(-4,9)	(7,2)	(-11,82)	(-3,1)	(5,2)	(8,38)	(-6,37)	(-14,2)	(4,1)	(6,3)	
L1D 8>	(-412,2)	(-8,126)	(-13,122)	(-5,17)	(8,3)	(0,11)	(-11,26)	(6,14)	(70,1)	(-7,13)	(28,2)	(-12,3)	(-276,3)	(180,3)	(-2,4)	(1,4)	
L1D 9>	(-8,16)	(0,20)	(-10,3)	(-12,13)	(-337,2)	(72,1)	(9,127)	(-391,1)	(-334,1)	(-301,3)	(-1,5)	(-3,44)	(-82,1)	(-436,1)	(-136,1)	(-9,76)	
L1D 10>	(-3,32)	(-5,98)	(-23,37)	(-8,16)	(9,99)	(-10,117)	(2,7)	(3,24)	(5,117)	(-17,24)	(0,52)	(11,37)	(67,1)	(1,92)	(-6,126)	(-9,35)	
L1D 11>	(108,1)	(-4,83)	(-11,15)	(0,11)	(8,6)	(-25,0)	(13,0)	(-9,0)	(-10,2)	(2,1)	(35,0)	(-13,7)	(12,0)	(-1,2)	(-5,0)	(14,4)	
L1D 12>	(-13,75)	(106,1)	(5,1)	(-11,2)	(144,2)	(12,0)	(0,2)	(36,0)	(-3,1)	(9,1)	(76,0)	(28,0)	(1,1)	(-8,55)	(-12,7)	(-1,32)	
L1D 13>	(-8,120)	(-5,0)	(-24,0)	(-17,0)	(1,1)	(2,0)	(-13,2)	(-16,0)	(-6,0)	(-10,0)	(-15,0)	(15,0)	(-2,0)	(-12,1)	(-117,0)	(0,0)	
L1D 14>	(-22,112)	(-14,57)	(2,13)	(-29,2)	(-6,49)	(-13,61)	(0,3)	(-12,16)	(103,1)	(-15,6)	(35,3)	(-18,5)	(16,1)	(1,7)	(-1,20)	(13,2)	
L1D 15>	(-2,106)	(-16,2)	(-59,1)	(-15,35)	(-10,51)	(15,3)	(14,1)	(1,1)	(-7,1)	(-17,1)	(-14,13)	(-30,1)	(-11,1)	(7,1)	(0,7)	(-9,4)	
L1D 16>	(-8,5)	(-16,106)	(-25,13)	(-23,29)	(-9,35)	(0,92)	(1,8)	(-2,7)	(11,2)	(-10,17)	(-12,50)	(15,2)	(8,2)	(-14,3)	(2,1)	(-15,34)	
L1D 17>	(-12,1)	(-17,83)	(1,6)	(-16,37)	(5,2)	(220,1)	(-8,1)	(0,8)	(98,1)	(17,1)	(-34,1)	(35,1)	(-18,2)	(13,1)	(-1,1)	(2,2)	
L1D 18>	(5,3)	(-18,121)	(0,49)	(27,3)	(1,8)	(18,1)	(9,6)	(-1,3)	(2,8)	(-9,7)	(117,2)	(-36,3)	(-17,42)	(-19,7)	(162,1)	(108,1)	
L1D 19>	(55,1)	(-8,99)	(-1,40)	(0,5)	(-13,106)	(26,0)	(18,0)	(63,0)	(-18,1)	(-21,0)	(-19,4)	(6,0)	(-26,0)	(-25,0)	(-20,0)	(2,0)	
L1D 20>	(40,1)	(-20,59)	(-176,2)	(1,3)	(92,5)	(-26,69)	(312,1)	(-2,8)	(9,4)	(-19,20)	(2,1)	(-38,57)	(-34,7)	(-45,15)	(-1,2)	(0,13)	
L1D 21>	(-21,118)	(40,2)	(91,1)	(137,1)	(-20,36)	(-23,2)	(67,1)	(6,3)	(1,10)	(0,4)	(27,2)	(55,1)	(9,1)	(-22,2)	(-60,1)	(2,2)	
L1D 22>	(-18,23)	(65,1)	(20,104)	(-62,1)	(-22,28)	(5,1)	(0,2)	(16,1)	(-21,9)	(21,1)	(-1,1)	(88,1)	(11,0)	(1,3)	(2,3)	(29,0)	
L1D 23>	(1,6)	(-23,65)	(-10,1)	(86,1)	(-39,3)	(2,0)	(63,1)	(0,2)	(-22,59)	(-8,0)	(-24,20)	(20,0)	(29,1)	(-25,2)	(-4,9)	(-11,0)	
L1D 24>	(-52,7)	(-48,1)	(0,26)	(2,6)	(-24,101)	(-23,26)	(1,15)	(-96,1)	(-1,1)	(-308,1)	(-25,1)	(-216,1)	(-4,1)	(84,4)	(-208,1)	(-2,17)	
L1D 25>	(-25,69)	(-23,17)	(12,1)	(0,1)	(-1,2)	(1,9)	(-22,45)	(-24,36)	(57,0)	(17,0)	(28,0)	(100,0)	(4,0)	(2,3)	(-20,0)	(-26,2)	
L1D 26>	(-26,102)	(130,4)	(1,14)	(65,7)	(-25,30)	(39,25)	(2,9)	(13,50)	(52,16)	(0,35)	(-39,16)	(26,44)	(-52,8)	(-70,1)	(-13,16)	(143,3)	
L1D 27>	(9,4)	(-26,24)	(54,2)	(-27,109)	(36,2)	(-18,4)	(46,1)	(0,42)	(27,2)	(18,3)	(-12,1)	(-1,1)	(-28,1)	(199,1)	(252,1)	(1,5)	
L1D 28>	(-70,2)	(0,24)	(-28,95)	(-27,31)	(-1,3)	(44,1)	(-12,1)	(168,2)	(24,2)	(128,2)	(-244,1)	(-2,10)	(100,1)	(1,5)	(-128,1)	(12,1)	
L1D 29>	(21,1)	(49,1)	(-29,83)	(1,7)	(-59,1)	(-30,2)	(8,4)	(10,2)	(-15,1)	(-28,30)	(77,1)	(213,0)	(67,0)	(-1,1)	(-31,2)	(82,0)	
L1D 30>	(0,11)	(-30,120)	(40,1)	(-2,5)	(-1,4)	(-29,42)	(17,2)	(140,1)	(1,10)	(21,2)	(2,15)	(3,1)	(-14,1)	(-60,3)	(6,2)	(205,1)	
L1D 31>	(-31,127)	(70,1)	(53,2)	(1,13)	(108,1)	(-1,4)	(-33,2)	(21,1)	(2,2)	(-30,38)	(12,2)	(0,7)	(8,1)	(23,1)	(14,1)	(4,1)	
L1D 32>	(-32,119)	(68,1)	(-150,1)	(-31,31)	(-2,15)	(-37,1)	(-52,1)	(-34,1)	(2,2)	(12,1)	(121,1)	(0,21)	(1,4)	(60,2)	(-8,3)	(-1,1)	
L1D 33>	(-33,116)	(1,9)	(108,1)	(16,1)	(0,3)	(-32,33)	(-1,4)	(10,2)	(73,1)	(-42,1)	(48,2)	(2,3)	(15,1)	(-50,1)	(-34,3)	(-36,2)	
L1D 34>	(1,10)	(-34,79)	(0,8)	(2,9)	(65,1)	(34,2)	(-68,1)	(-30,1)	(11,1)	(-1,1)	(-32,2)	(-2,2)	(38,1)	(-33,23)	(37,1)	(96,1)	
L1D 35>	(-48,109)	(-56,2)	(1,10)	(0,6)	(-1,2)	(-34,41)	(-35,114)	(62,1)	(6,1)	(-37,2)	(35,5)	(71,1)	(-141,1)	(8,2)	(55,1)	(28,1)	
L1D 36>	(-48,15)	(-36,85)	(0,56)	(1,6)	(-2,5)	(54,1)	(-43,1)	(80,1)	(108,2)	(-9,1)	(-35,17)	(-27,1)	(-3,1)	(264,1)	(244,1)	(-208,1)	
L1D 37>	(-37,104)	(1,10)	(-1,4)	(-36,42)	(-43,1)	(-93,1)	(194,1)	(23,1)	(52,1)	(-39,1)	(47,1)	(0,1)	(49,1)	(2,1)	(235,1)	(53,1)	
L1D 38>	(1,9)	(0,5)	(-34,23)	(2,6)	(31,1)	(-32,1)	(-37,23)	(-2,1)	(-38,72)	(-45,74)	(-39,1)	(5,1)	(-1,2)	(12,1)	(183,1)	(-72,1)	
L1D 39>	(-38,24)	(-39,110)	(0,37)	(39,31)	(1,6)	(26,34)	(52,18)	(-26,11)	(-260,12)	(-90,1)	(-208,9)	(-78,9)	(-143,8)	(13,38)	(91,17)	(-13,26)	
L1D 40>	(-40,119)	(-80,2)	(28,1)	(24,1)	(1,3)	(-108,4)	(-39,36)	(-2,17)	(-24,2)	(-42,1)	(0,43)	(176,1)	(-164,3)	(192,1)	(160,1)	(2,7)	
L1D 41>	(-41,13)	(39,1)	(26,1)	(1,89)	(-42,0)	(32,0)	(178,0)	(-21,2)	(52,0)	(-44,0)	(18,0)	(-47,0)	(14,0)	(-1,0)	(49,0)	(-40,5)	
L1D 42>	(1,83)	(2,8)	(42,2)	(-42,41)	(-20,7)	(-41,15)	(0,6)	(-21,17)	(24,1)	(8,1)	(20,1)	(174,1)	(-1,3)	(-40,2)	(50,1)	(112,1)	
L1D 43>	(1,6)	(-1,9)	(-43,76)	(115,1)	(-21,15)	(-44,2)	(58,1)	(-45,1)	(-46,1)	(-42,29)	(7,1)	(2,1)	(175,1)	(8,0)	(113,0)	(86,0)	
L1D 44>	(26,2)	(49,1)	(-44,92)	(-43,27)	(-48,2)	(224,2)	(0,32)	(-172,2)	(-2,16)	(205,1)	(-132,1)	(-376,1)	(2,3)	(45,1)	(1,3)	(-12,2)	
L1D 45>	(-108,1)	(21,1)	(108,1)	(0,38)	(-171,1)	(-45,66)	(1,1)	(81,2)	(15,1)	(-252,1)	(47,1)	(-81,1)	(-44,15)	(-18,1)	(-61,0)	(-46,1)	
L1D 46>	(1,25)	(-46,101)	(-45,25)	(412,1)	(0,11)	(2,15)	(-48,2)	(-93,1)	(-92,1)	(-1,2)	(25,1)	(186,1)	(29,1)	(-2,5)	(51,1)	(-197,1)	
L1D 47>	(1,36)	(-47,90)	(170,1)	(-14,1)	(39,1)	(-46,33)	(122,1)	(-1,1)	(3,2)	(103,0)	(-51,0)	(-215,0)	(30,1)	(54,0)	(0,0)	(46,0)	
L1D 48>	(-272,1)	(52,1)	(1,18)	(2,2)	(-48,85)	(-2,14)	(424,1)	(0,40)	(-128,1)	(-47,21)	(304,2)	(248,1)	(60,1)	(26,1)	(89,1)	(-400,1)	
L1D 49>	(1,49)	(-1,1)	(-49,68)	(34,0)	(-48,25)	(36,0)	(0,3)	(17,0)	(-117,0)	(-286,1)	(30,0)	(4,0)	(72,0)	(-299,1)	(2,1)	(-52,1)	
L1D 50>	(-50,124)	(-49,43)	(1,10)	(-1,7)	(41,1)	(2,21)	(0,15)	(-2,9)	(10,2)	(37,1)	(-52,4)	(72,3)	(-10,9)	(27,1)	(17,3)	(59,1)	
L1D 51>	(1,8)	(-50,40)	(39,1)	(-51,120)	(0,2)	(-1,7)	(32,2)	(65,1)	(5,2)	(10,1)	(196,1)	(102,1)	(30,2)	(153,1)	(105,1)	(-3,2)	
L1D 52>	(-52,79)	(-13,13)	(13,14)	(39,14)	(156,4)	(-39,9)	(0,41)	(26,10)	(-26,4)	(-130,6)	(-2,9)	(104,6)	(1,1)	(-51,10)	(52,8)	(221,4)	
L1D 53>	(-53,108)	(1,10)	(70,1)	(-52,37)	(-186,1)	(-1,4)	(6,2)	(0,5)	(81,2)	(22,1)	(-57,1)	(-106,2)	(53,1)	(158,1)	(34,1)	(2,1)	
L1D 54>	(2,13)	(0,58)	(1,5)	(-54,105)	(35,1)	(54,1)	(-52,4)	(-1,1)	(-2,3)	(45,2)	(-53,23)	(36,1)	(68,2)	(-18,2)	(126,1)	(-400,1)	
L1D 55>	(-55,87)	(1,8)	(-54,30)	(18,2)	(49,1)	(-1,4)	(76,1)	(55,1)	(0,1)	(-58,1)	(10,1)	(2,2)	(-143,1)	(145,1)	(7,1)	(8,7)	
L1D 56>	(-56,99)	(0,45)	(1,6)	(-2,14)	(56,4)	(68,4)	(-112,3)	(32,1)	(-55,23)	(2,5)	(-184,2)	(236,1)	(20,2)	(228,2)	(60,1)	(-16,1)	
L1D 57>	(1,9)	(28,1)	(-57,66)	(2,1)	(-1,2)	(59,0)	(-2,1)	(-56,18)	(111,0)	(99,0)	(18,0)	(4,1)	(83,0)	(56,0)	(-73,0)	(-58,0)	
L1D 58>	(-2,4)	(-58,64)	(-57,24)	(2,8)	(-1,2)	(-56,4)	(60,0)	(-59,0)	(232,0)	(80,0)	(-4,0)	(-266,0)	(-86,0)	(1,5)	(48,0)	(0,4)	
L1D 59>	(0,1)	(-59,72)	(132,1)	(-1,2)	(20,1)	(1,9)	(2,0)	(-74,0)	(-2,0)	(-60,1)	(-58,22)	(-3,0)	(3,0)	(30,0)	(-194,0)	(16,0)	
L1D 60>	(60,3)	(-60,103)	(-2,26)	(0,42)	(84,2)	(2,2)	(128,2)	(-59,23)	(-44,1)	(-16,1)	(-128,2)	(160,3)	(-24,3)	(36,1)	(1,9)	(-244,1)	
L1D 61>	(1,10)	(-61,85)	(0,1)	(-1,2)	(28,1)	(-55,1)	(10,1)	(-60,31)	(9,1)	(-62,1)	(362,1)	(257,1)	(30,1)	(-31,1)	(31,1)	(2,1)	
L1D 62>	(2,22)	(-62,92)	(-61,27)	(-2,5)	(127,2)	(11,1)	(0,10)	(1,14)	(-1,6)	(-52,1)	(13,1)	(78,1)	(273,1)	(-60,5)	(26,1)	(357,1)	
[...]
L1D 493>	(-493,2)	(-492,2)	(-172,1)	(-1,1)	(1,0)	(1,0)	(1,0)	(1,0)	(1,0)	(1,0)	(1,0)	(1,0)	(1,0)	(1,0)	(1,0)	(1,0)	
L1D 494>	(-338,3)	(-351,7)	(-260,25)	(-416,28)	(-481,10)	(-156,7)	(-273,3)	(-208,8)	(0,6)	(-403,2)	(-234,2)	(-65,4)	(-494,6)	(2,7)	(-299,1)	(-13,2)	
L1D 495>	(0,15)	(-126,1)	(-495,9)	(-360,1)	(-450,2)	(-494,2)	(-252,1)	(-14,2)	(-441,1)	(-9,1)	(-432,1)	(-171,1)	(-459,2)	(-486,1)	(-36,1)	(-180,1)	
L1D 496>	(0,10)	(-508,2)	(-344,2)	(-316,2)	(-496,3)	(-228,2)	(-416,1)	(-336,1)	(-120,1)	(-2,3)	(-204,1)	(-256,1)	(-400,1)	(-224,1)	(-495,1)	(-252,1)	
L1D 497>	(-496,1)	(-497,1)	(0,1)	(8,1)	(1,0)	(1,0)	(1,0)	(1,0)	(1,0)	(1,0)	(1,0)	(1,0)	(1,0)	(1,0)	(1,0)	(1,0)	
L1D 498>	(2,2)	(-1,2)	(-498,3)	(-256,1)	(-497,2)	(-112,1)	(0,1)	(-128,1)	(-80,1)	(1,0)	(1,0)	(1,0)	(1,0)	(1,0)	(1,0)	(1,0)	
L1D 499>	(-499,1)	(1,0)	(1,0)	(1,0)	(1,0)	(1,0)	(1,0)	(1,0)	(1,0)	(1,0)	(1,0)	(1,0)	(1,0)	(1,0)	(1,0)	(1,0)	
L1D 500>	(0,9)	(-444,1)	(-348,1)	(-500,6)	(-499,2)	(-424,2)	(-204,3)	(-2,3)	(-376,1)	(-416,1)	(2,1)	(-428,1)	(-152,1)	(-248,1)	(-200,1)	(4,1)	
L1D 501>	(-501,2)	(-500,1)	(1,0)	(1,0)	(1,0)	(1,0)	(1,0)	(1,0)	(1,0)	(1,0)	(1,0)	(1,0)	(1,0)	(1,0)	(1,0)	(1,0)	
L1D 502>	(0,4)	(-502,3)	(2,1)	(1,0)	(1,0)	(1,0)	(1,0)	(1,0)	(1,0)	(1,0)	(1,0)	(1,0)	(1,0)	(1,0)	(1,0)	(1,0)	
L1D 503>	(-502,2)	(-503,2)	(1,0)	(1,0)	(1,0)	(1,0)	(1,0)	(1,0)	(1,0)	(1,0)	(1,0)	(1,0)	(1,0)	(1,0)	(1,0)	(1,0)	
L1D 504>	(-2,3)	(0,14)	(-268,2)	(-208,1)	(-216,1)	(-424,1)	(-52,1)	(-279,1)	(-504,5)	(-400,1)	(-9,1)	(-378,1)	(-76,1)	(-344,1)	(-356,1)	(-428,1)	
L1D 505>	(-503,1)	(-505,2)	(-400,1)	(-10,1)	(-504,2)	(1,0)	(1,0)	(1,0)	(1,0)	(1,0)	(1,0)	(1,0)	(1,0)	(1,0)	(1,0)	(1,0)	
L1D 506>	(-506,3)	(-142,1)	(0,6)	(2,2)	(-505,1)	(1,0)	(1,0)	(1,0)	(1,0)	(1,0)	(1,0)	(1,0)	(1,0)	(1,0)	(1,0)	(1,0)	
L1D 507>	(-208,1)	(0,3)	(-338,2)	(-260,2)	(-221,1)	(-13,1)	(-364,1)	(-325,1)	(-39,1)	(-312,1)	(-247,1)	(-442,1)	(1,0)	(1,0)	(1,0)	(1,0)	
L1D 508>	(-84,1)	(-360,1)	(-452,1)	(-420,1)	(-276,2)	(-508,1)	(-507,1)	(-156,1)	(-2,2)	(-388,1)	(-324,2)	(-52,1)	(0,2)	(-400,1)	(-100,1)	(-356,1)	
L1D 509>	(-26,1)	(1,0)	(1,0)	(1,0)	(1,0)	(1,0)	(1,0)	(1,0)	(1,0)	(1,0)	(1,0)	(1,0)	(1,0)	(1,0)	(1,0)	(1,0)	
L1D 510>	(-510,1)	(-509,1)	(-246,1)	(1,0)	(1,0)	(1,0)	(1,0)	(1,0)	(1,0)	(1,0)	(1,0)	(1,0)	(1,0)	(1,0)	(1,0)	(1,0)	
L1D 511>	(1,0)	(1,0)	(1,0)	(1,0)	(1,0)	(1,0)	(1,0)	(1,0)	(1,0)	(1,0)	(1,0)	(1,0)	(1,0)	(1,0)	(1,0)	(1,0)	

L2C -64>	(2,70)	(1,210)	(3,68)	(-1,125)	(-36,11)	(-4,37)	(56,1)	(-10,14)	(5,36)	(-3,21)	(6,58)	(-5,38)	(-2,46)	(-6,37)	(14,20)	(-12,17)	
L2C -63>	(5,2)	(60,2)	(31,1)	(41,1)	(1,5)	(3,2)	(0,6)	(23,3)	(32,2)	(36,2)	(13,2)	(30,2)	(46,1)	(18,1)	(54,2)	(58,1)	
L2C -62>	(21,11)	(-1,3)	(63,2)	(1,5)	(34,4)	(61,4)	(62,1)	(27,3)	(32,2)	(19,5)	(0,4)	(12,3)	(48,1)	(15,3)	(45,4)	(36,3)	
L2C -61>	(32,4)	(23,3)	(53,4)	(39,1)	(3,4)	(42,1)	(51,2)	(26,2)	(30,3)	(45,5)	(8,5)	(31,2)	(1,5)	(43,1)	(46,5)	(60,6)	
L2C -60>	(55,10)	(1,9)	(60,8)	(45,5)	(-1,4)	(53,3)	(34,7)	(6,3)	(3,10)	(58,24)	(29,6)	(38,4)	(40,6)	(43,1)	(41,5)	(22,3)	
L2C -59>	(1,14)	(-1,9)	(31,5)	(23,19)	(32,1)	(2,7)	(54,6)	(28,5)	(39,24)	(3,7)	(20,5)	(13,5)	(14,3)	(5,8)	(24,4)	(11,2)	
L2C -58>	(44,11)	(37,5)	(58,9)	(0,8)	(43,4)	(32,9)	(48,7)	(26,13)	(14,1)	(30,3)	(20,4)	(-1,2)	(56,4)	(52,6)	(27,7)	(50,3)	
L2C -57>	(54,9)	(1,17)	(32,1)	(13,15)	(52,15)	(56,8)	(2,20)	(-1,5)	(49,14)	(46,14)	(26,11)	(43,6)	(-6,3)	(41,6)	(50,10)	(47,6)	
L2C -56>	(-1,8)	(1,9)	(59,12)	(30,5)	(55,6)	(11,10)	(26,6)	(10,26)	(28,1)	(6,3)	(14,6)	(58,5)	(5,8)	(8,7)	(56,7)	(15,5)	
L2C -55>	(1,18)	(2,13)	(18,35)	(55,47)	(10,12)	(23,37)	(24,1)	(22,5)	(39,12)	(49,13)	(-8,4)	(32,12)	(20,8)	(41,11)	(11,29)	(51,7)	
L2C -54>	(-1,34)	(34,16)	(10,14)	(1,18)	(2,38)	(52,12)	(56,5)	(49,17)	(26,12)	(8,13)	(4,6)	(13,11)	(11,7)	(45,12)	(42,33)	(16,1)	
L2C -53>	(1,27)	(44,9)	(8,14)	(33,26)	(51,1)	(14,9)	(45,29)	(3,5)	(36,8)	(12,3)	(19,8)	(53,11)	(-1,17)	(52,17)	(23,5)	(6,4)	
L2C -52>	(13,34)	(35,1)	(49,14)	(1,21)	(-1,29)	(3,11)	(47,46)	(21,13)	(45,10)	(17,16)	(8,23)	(39,31)	(2,30)	(19,12)	(-5,31)	(52,26)	
L2C -51>	(1,17)	(17,10)	(35,2)	(9,28)	(41,14)	(51,20)	(33,32)	(8,12)	(12,18)	(14,9)	(23,37)	(2,27)	(52,34)	(61,3)	(10,7)	(54,8)	
L2C -50>	(1,37)	(5,13)	(13,21)	(49,20)	(38,1)	(24,19)	(11,19)	(37,18)	(0,8)	(41,16)	(26,14)	(29,20)	(21,8)	(33,27)	(3,11)	(46,10)	
L2C -49>	(-5,1)	(13,16)	(38,16)	(5,22)	(30,24)	(11,23)	(21,20)	(41,23)	(51,12)	(2,15)	(34,16)	(7,19)	(29,27)	(48,19)	(28,34)	(16,13)	
L2C -48>	(1,33)	(-1,23)	(29,11)	(8,16)	(40,7)	(47,18)	(11,12)	(35,1)	(49,15)	(22,26)	(2,16)	(39,10)	(6,9)	(50,5)	(-8,7)	(51,10)	
L2C -47>	(-2,17)	(19,1)	(60,24)	(48,15)	(10,35)	(-7,14)	(39,37)	(18,15)	(1,23)	(26,11)	(2,26)	(38,28)	(3,24)	(37,14)	(46,15)	(-1,25)	
L2C -46>	(39,47)	(1,18)	(38,14)	(5,13)	(2,29)	(23,23)	(-8,7)	(35,16)	(56,32)	(30,14)	(46,45)	(9,1)	(3,17)	(41,14)	(10,19)	(36,29)	
L2C -45>	(40,42)	(36,17)	(39,13)	(32,23)	(44,21)	(23,15)	(1,30)	(15,20)	(37,21)	(13,28)	(-2,20)	(19,27)	(-1,24)	(25,1)	(6,23)	(0,18)	
L2C -44>	(-3,41)	(-5,1)	(1,37)	(46,28)	(45,30)	(3,21)	(27,12)	(17,21)	(50,12)	(31,23)	(54,14)	(34,30)	(42,37)	(18,28)	(37,17)	(26,35)	
L2C -43>	(15,17)	(-2,18)	(13,22)	(1,26)	(50,7)	(7,20)	(5,16)	(20,21)	(-10,1)	(27,9)	(19,11)	(-4,10)	(47,15)	(-1,22)	(32,16)	(26,39)	
L2C -42>	(43,12)	(1,28)	(23,1)	(34,26)	(40,15)	(3,38)	(48,17)	(56,8)	(18,21)	(47,21)	(32,15)	(49,15)	(21,44)	(10,23)	(37,43)	(44,27)	
L2C -41>	(1,30)	(-8,26)	(38,22)	(-5,14)	(20,28)	(31,34)	(12,1)	(11,19)	(37,17)	(44,22)	(41,50)	(8,28)	(15,31)	(-1,39)	(2,49)	(7,14)	
L2C -40>	(1,45)	(27,49)	(10,15)	(-5,18)	(33,1)	(21,36)	(-1,18)	(26,33)	(-3,29)	(11,17)	(-4,18)	(36,15)	(-14,5)	(42,21)	(22,22)	(5,33)	
L2C -39>	(1,71)	(12,27)	(0,60)	(15,36)	(39,108)	(-13,47)	(49,18)	(-23,1)	(-18,14)	(28,29)	(-9,12)	(54,11)	(45,28)	(5,38)	(50,27)	(31,60)	
L2C -38>	(23,25)	(20,73)	(-11,13)	(40,12)	(2,39)	(46,42)	(5,20)	(-5,15)	(-1,40)	(-2,13)	(36,28)	(-7,1)	(31,19)	(15,27)	(4,24)	(6,7)	
L2C -37>	(4,23)	(11,23)	(1,37)	(15,18)	(-15,24)	(-2,40)	(2,25)	(12,1)	(42,37)	(48,14)	(-7,12)	(37,44)	(36,44)	(-1,41)	(0,42)	(22,34)	
L2C -36>	(1,28)	(26,35)	(29,48)	(39,71)	(10,1)	(2,50)	(-2,29)	(-1,95)	(36,44)	(27,9)	(34,24)	(28,55)	(13,30)	(11,41)	(40,22)	(14,18)	
L2C -35>	(36,16)	(1,51)	(40,20)	(-7,13)	(-26,9)	(45,30)	(30,37)	(25,22)	(-13,11)	(33,15)	(27,24)	(-1,36)	(-8,1)	(7,18)	(-19,7)	(-9,6)	
L2C -34>	(0,40)	(28,55)	(-11,27)	(2,35)	(-3,54)	(6,1)	(-8,37)	(12,17)	(47,33)	(10,33)	(1,85)	(37,45)	(33,45)	(3,43)	(8,70)	(32,30)	
L2C -33>	(-1,70)	(16,13)	(33,85)	(28,42)	(-14,16)	(1,39)	(46,25)	(29,21)	(44,21)	(41,1)	(-4,11)	(7,29)	(-2,13)	(4,21)	(9,10)	(26,30)	
L2C -32>	(3,64)	(34,34)	(0,20)	(39,23)	(8,24)	(-19,1)	(1,74)	(-3,18)	(9,31)	(7,24)	(16,24)	(-7,17)	(10,23)	(6,24)	(-2,54)	(18,41)	
L2C -31>	(1,47)	(25,25)	(30,38)	(32,32)	(-7,33)	(-2,1)	(37,25)	(14,20)	(3,44)	(6,52)	(33,37)	(24,32)	(9,19)	(-8,26)	(7,44)	(23,39)	
L2C -30>	(21,40)	(-1,63)	(34,1)	(1,34)	(3,31)	(-10,20)	(7,23)	(-2,29)	(8,26)	(-19,35)	(15,26)	(-4,22)	(30,63)	(11,28)	(4,49)	(10,21)	
L2C -29>	(8,75)	(-3,1)	(1,71)	(24,31)	(-1,39)	(47,19)	(11,40)	(-20,48)	(29,98)	(-15,52)	(42,37)	(-7,65)	(34,55)	(-12,30)	(35,18)	(3,38)	
L2C -28>	(1,28)	(2,44)	(8,45)	(29,66)	(21,56)	(18,1)	(-14,18)	(27,22)	(12,46)	(-13,35)	(49,37)	(19,17)	(-18,35)	(33,40)	(-16,26)	(5,32)	
L2C -27>	(26,56)	(34,55)	(55,1)	(-1,53)	(9,18)	(28,23)	(22,58)	(24,35)	(-15,23)	(-2,39)	(47,15)	(31,44)	(15,33)	(16,23)	(1,45)	(18,26)	
L2C -26>	(1,86)	(42,33)	(26,146)	(2,46)	(16,85)	(17,39)	(15,75)	(18,54)	(41,31)	(7,54)	(-3,82)	(-10,50)	(39,34)	(-27,1)	(-5,60)	(4,51)	
L2C -25>	(1,47)	(18,34)	(25,51)	(31,42)	(16,20)	(-32,21)	(44,20)	(2,74)	(17,26)	(43,21)	(-5,1)	(21,34)	(-23,19)	(-1,64)	(-13,33)	(24,39)	
L2C -24>	(1,89)	(6,40)	(-2,48)	(-21,26)	(8,40)	(-1,54)	(31,43)	(-13,48)	(24,57)	(33,16)	(26,1)	(34,33)	(-31,17)	(-11,19)	(-7,78)	(17,12)	
L2C -23>	(1,64)	(-1,81)	(21,80)	(2,73)	(53,1)	(11,36)	(23,83)	(29,46)	(-15,22)	(52,19)	(-3,43)	(8,69)	(35,15)	(16,31)	(10,52)	(18,71)	
L2C -22>	(1,83)	(18,1)	(-5,26)	(11,31)	(6,65)	(-8,46)	(21,45)	(-14,14)	(-16,16)	(-9,23)	(35,20)	(29,19)	(27,27)	(40,17)	(5,41)	(-4,33)	
L2C -21>	(8,74)	(18,53)	(-1,96)	(1,106)	(22,36)	(37,1)	(42,28)	(9,35)	(15,40)	(-31,11)	(52,31)	(43,18)	(4,36)	(35,24)	(-4,45)	(2,61)	
L2C -20>	(7,49)	(25,71)	(20,37)	(-2,23)	(38,18)	(5,56)	(-22,14)	(18,57)	(15,1)	(13,69)	(52,31)	(-1,145)	(23,32)	(-16,25)	(21,53)	(29,30)	
L2C -19>	(1,100)	(37,29)	(6,75)	(-29,14)	(11,53)	(-1,84)	(2,32)	(5,49)	(-3,44)	(13,2)	(-2,86)	(-24,13)	(17,34)	(-23,24)	(28,29)	(-5,42)	
L2C -18>	(1,72)	(13,76)	(23,41)	(16,80)	(4,41)	(11,40)	(7,50)	(12,42)	(-1,111)	(8,99)	(-13,68)	(15,69)	(41,21)	(-24,37)	(33,1)	(27,27)	
L2C -17>	(13,64)	(4,36)	(23,32)	(19,19)	(1,98)	(18,60)	(15,1)	(-7,23)	(-14,38)	(2,50)	(27,20)	(3,35)	(12,32)	(-25,8)	(29,35)	(17,57)	
L2C -16>	(1,87)	(-2,73)	(-28,27)	(-8,60)	(36,1)	(-15,45)	(28,29)	(13,72)	(7,46)	(32,70)	(-44,6)	(-12,26)	(4,15)	(21,36)	(9,30)	(-34,17)	
L2C -15>	(1,60)	(-13,53)	(20,69)	(11,34)	(2,88)	(8,63)	(-1,82)	(13,74)	(-3,56)	(-8,76)	(47,19)	(-24,37)	(42,1)	(14,48)	(39,25)	(23,37)	
L2C -14>	(-1,88)	(1,95)	(30,1)	(-4,35)	(-7,68)	(-27,10)	(32,26)	(-2,79)	(11,65)	(42,17)	(-12,35)	(7,25)	(35,19)	(9,38)	(4,27)	(40,76)	
L2C -13>	(20,67)	(13,118)	(43,27)	(19,47)	(-9,42)	(1,118)	(42,1)	(4,52)	(40,21)	(41,30)	(-14,39)	(36,40)	(-4,27)	(7,60)	(21,80)	(-1,131)	
L2C -12>	(1,67)	(40,1)	(41,41)	(9,25)	(37,14)	(28,26)	(-9,33)	(5,73)	(3,35)	(22,30)	(7,46)	(-8,37)	(20,40)	(-25,16)	(4,41)	(11,75)	
L2C -11>	(34,1)	(-1,67)	(-6,31)	(27,28)	(30,27)	(-25,31)	(-42,29)	(18,50)	(31,32)	(8,65)	(46,13)	(-19,21)	(13,65)	(23,57)	(47,20)	(5,61)	
L2C -10>	(5,123)	(7,80)	(36,29)	(9,62)	(-8,63)	(-10,46)	(-6,1)	(1,88)	(15,74)	(-3,95)	(19,39)	(2,68)	(-15,30)	(21,56)	(18,80)	(11,94)	
L2C -9>	(1,117)	(-8,43)	(18,39)	(2,39)	(-31,21)	(8,65)	(24,39)	(-36,1)	(50,10)	(29,38)	(44,15)	(-1,69)	(-25,17)	(-5,29)	(21,62)	(57,11)	
L2C -8>	(31,10)	(-1,20)	(8,30)	(10,243)	(-8,10)	(-2,16)	(1,16)	(3,26)	(6,12)	(2,7)	(7,15)	(9,18)	(13,19)	(37,1)	(-10,11)	(-4,8)	
L2C -7>	(1,9)	(6,7)	(-8,9)	(11,16)	(3,9)	(-21,4)	(-3,11)	(15,1)	(34,4)	(-1,27)	(23,8)	(8,175)	(2,12)	(9,14)	(-6,8)	(-5,11)	
L2C -6>	(-1,25)	(8,53)	(1,83)	(-9,1)	(20,4)	(42,2)	(-2,17)	(10,37)	(25,4)	(7,178)	(0,19)	(-30,5)	(24,12)	(-7,10)	(18,19)	(11,28)	
L2C -5>	(6,253)	(1,102)	(-8,74)	(15,49)	(23,56)	(0,75)	(51,1)	(-1,91)	(9,30)	(7,70)	(-11,37)	(-2,62)	(2,76)	(-14,26)	(43,10)	(22,15)	
L2C -4>	(1,90)	(2,38)	(-1,135)	(31,8)	(9,30)	(6,47)	(0,28)	(5,146)	(-18,1)	(11,35)	(-40,6)	(10,49)	(22,7)	(23,12)	(15,14)	(7,68)	
L2C -3>	(1,53)	(7,24)	(4,159)	(-1,86)	(-3,16)	(2,38)	(-11,14)	(-2,53)	(-17,8)	(6,31)	(0,22)	(41,3)	(19,1)	(29,10)	(-8,9)	(23,12)	
L2C -2>	(-1,98)	(1,200)	(2,200)	(5,26)	(3,82)	(-8,15)	(-2,1)	(-9,14)	(6,28)	(8,31)	(35,3)	(-11,13)	(0,9)	(9,14)	(-3,21)	(4,51)	
L2C -1>	(2,216)	(3,25)	(1,63)	(-10,7)	(-17,9)	(-1,198)	(24,1)	(7,7)	(-7,11)	(-2,35)	(0,6)	(4,15)	(-5,7)	(-3,9)	(-6,7)	(-23,6)	
L2C 0>	(-7,1)	(-31,7)	(23,12)	(-23,4)	(1,15)	(-11,3)	(-21,5)	(0,177)	(-1,25)	(-48,5)	(18,11)	(-33,5)	(-5,12)	(-8,14)	(-39,3)	(34,10)	
L2C 1>	(1,222)	(-2,14)	(2,31)	(9,1)	(4,1)	(-43,1)	(-57,1)	(-1,5)	(-3,1)	(-53,1)	(-4,1)	(-5,2)	(-7,2)	(3,3)	(-45,1)	(-6,3)	
L2C 2>	(4,8)	(2,16)	(1,243)	(9,1)	(-2,1)	(8,1)	(5,1)	(0,2)	(27,2)	(6,5)	(-1,123)	(-7,2)	(-32,2)	(12,3)	(3,6)	(26,1)	
L2C 3>	(2,48)	(13,10)	(1,145)	(-2,29)	(3,45)	(5,25)	(-7,1)	(-3,24)	(-13,9)	(-1,80)	(-5,21)	(18,9)	(-21,10)	(-26,11)	(-31,6)	(-29,5)	
L2C 4>	(-2,20)	(1,193)	(4,37)	(-17,1)	(-3,20)	(-1,45)	(-4,29)	(-7,10)	(7,12)	(3,27)	(18,7)	(8,9)	(-33,7)	(5,16)	(2,33)	(-23,6)	
L2C 5>	(1,193)	(-2,35)	(-5,69)	(3,35)	(0,32)	(-45,4)	(4,23)	(2,56)	(-6,18)	(-10,1)	(-7,24)	(22,7)	(-1,40)	(-19,8)	(34,6)	(-8,31)	
L2C 6>	(1,152)	(-1,27)	(-6,41)	(-7,17)	(-5,46)	(-16,8)	(2,34)	(7,12)	(13,7)	(12,13)	(-2,28)	(16,1)	(-22,13)	(-37,4)	(28,9)	(-20,4)	
L2C 7>	(1,176)	(-3,7)	(-1,18)	(5,13)	(-6,11)	(3,22)	(2,14)	(-2,24)	(-20,1)	(18,5)	(-33,9)	(-7,35)	(-16,7)	(4,15)	(-15,7)	(-5,12)	
L2C 8>	(1,37)	(-11,4)	(-1,13)	(12,4)	(-5,15)	(2,175)	(-13,16)	(-2,16)	(-9,15)	(-16,8)	(-3,14)	(3,29)	(4,4)	(-8,16)	(-55,1)	(11,8)	
L2C 9>	(-2,43)	(2,86)	(-4,52)	(-9,100)	(1,146)	(11,28)	(26,15)	(3,72)	(-6,50)	(-1,107)	(-34,23)	(21,29)	(-50,1)	(-24,55)	(-11,42)	(9,30)	
L2C 10>	(5,16)	(1,199)	(-6,4)	(10,7)	(-11,10)	(27,5)	(-9,1)	(2,24)	(-41,3)	(8,17)	(-1,89)	(-2,11)	(11,5)	(-13,13)	(-16,3)	(-5,15)	
L2C 11>	(-2,17)	(-1,47)	(3,33)	(-12,17)	(1,134)	(-13,22)	(13,10)	(-5,23)	(-23,17)	(-24,27)	(-6,1)	(-10,26)	(-4,15)	(-17,14)	(-21,32)	(-18,13)	
L2C 12>	(1,240)	(9,31)	(-1,121)	(-8,35)	(-24,1)	(3,44)	(-25,39)	(34,12)	(-9,46)	(-10,74)	(-34,38)	(-13,55)	(32,17)	(-20,30)	(8,59)	(22,19)	
L2C 13>	(-10,105)	(15,44)	(-22,24)	(1,169)	(12,39)	(-31,49)	(39,19)	(-38,34)	(0,66)	(33,22)	(25,17)	(-5,138)	(-1,124)	(-29,1)	(23,40)	(-28,36)	
L2C 14>	(-28,1)	(-14,151)	(-4,27)	(-26,27)	(-6,28)	(12,56)	(31,14)	(10,33)	(1,139)	(7,42)	(6,19)	(-1,107)	(-11,75)	(2,85)	(3,42)	(-18,36)	
L2C 15>	(-1,87)	(-38,22)	(-46,26)	(8,52)	(1,137)	(-21,31)	(-13,64)	(-22,1)	(-6,39)	(3,78)	(-2,73)	(-18,65)	(-7,41)	(-4,40)	(44,9)	(-15,182)	
L2C 16>	(2,1)	(-16,119)	(-1,141)	(-20,45)	(1,96)	(-57,16)	(-9,41)	(-8,60)	(11,67)	(6,36)	(-28,25)	(-37,41)	(-21,41)	(-2,32)	(-27,29)	(-25,25)	
L2C 17>	(-1,91)	(-19,1)	(29,8)	(18,42)	(1,97)	(2,41)	(-2,42)	(-3,54)	(-16,50)	(21,16)	(-4,51)	(-35,19)	(8,38)	(-17,70)	(-18,50)	(-34,20)	
L2C 18>	(1,108)	(-3,65)	(-7,49)	(-26,64)	(-1,86)	(-24,37)	(-10,56)	(8,63)	(-19,54)	(19,28)	(-31,43)	(-28,33)	(-37,30)	(24,25)	(-27,20)	(20,1)	
L2C 19>	(-2,30)	(1,41)	(-28,18)	(-20,23)	(-8,45)	(3,45)	(10,28)	(-11,33)	(-1,102)	(-26,57)	(-19,200)	(-3,1)	(16,22)	(15,24)	(20,21)	(-22,57)	
L2C 20>	(-8,35)	(-20,187)	(1,84)	(2,37)	(-1,54)	(-23,23)	(-2,45)	(-4,1)	(13,49)	(17,8)	(-22,22)	(-17,29)	(-46,22)	(-11,23)	(-47,11)	(-16,33)	
L2C 21>	(-5,115)	(-17,1)	(1,97)	(-1,96)	(-14,34)	(-10,42)	(-6,56)	(-23,39)	(6,54)	(-11,35)	(-18,80)	(-16,95)	(-4,36)	(-31,49)	(-2,39)	(-15,38)	
L2C 22>	(3,36)	(-3,31)	(-27,26)	(-35,1)	(1,49)	(-57,8)	(-47,10)	(22,15)	(-11,55)	(19,22)	(12,28)	(-9,34)	(-13,29)	(20,13)	(-1,63)	(16,9)	
L2C 23>	(7,19)	(13,1)	(-5,69)	(15,28)	(21,41)	(1,108)	(-20,42)	(-7,43)	(-4,49)	(-32,30)	(-47,34)	(-23,96)	(-12,33)	(-43,17)	(-1,79)	(-3,32)	
L2C 24>	(18,1)	(1,84)	(-18,40)	(-4,16)	(16,38)	(-10,28)	(5,40)	(-12,25)	(-1,111)	(-7,18)	(-8,51)	(-17,23)	(-11,57)	(-27,29)	(7,35)	(-36,21)	
L2C 25>	(1,82)	(-1,59)	(-42,31)	(6,26)	(-10,27)	(-45,12)	(-11,23)	(-24,1)	(4,23)	(-15,28)	(-38,19)	(-16,24)	(-13,36)	(-7,39)	(-25,45)	(-29,20)	
L2C 26>	(7,1)	(-25,60)	(-5,41)	(-12,45)	(-2,37)	(18,38)	(-9,27)	(-19,23)	(11,25)	(10,34)	(-18,36)	(2,30)	(-15,27)	(1,50)	(-13,73)	(-20,41)	
L2C 27>	(1,44)	(-35,33)	(-25,1)	(-1,82)	(-11,30)	(3,22)	(-46,9)	(-34,28)	(-40,16)	(-59,5)	(-48,11)	(-45,18)	(-37,28)	(-26,72)	(-5,28)	(-18,33)	
L2C 28>	(8,75)	(-37,39)	(-1,53)	(1,79)	(-23,50)	(-34,28)	(12,1)	(21,15)	(-29,32)	(-18,33)	(7,24)	(-38,19)	(5,58)	(6,40)	(29,13)	(-10,75)	
L2C 29>	(1,66)	(8,49)	(-22,72)	(-11,66)	(-7,40)	(-30,24)	(-34,46)	(-13,87)	(-9,19)	(-52,23)	(-2,30)	(3,25)	(11,1)	(-3,34)	(-1,95)	(-29,95)	
L2C 30>	(-41,18)	(-1,54)	(-9,23)	(-6,44)	(1,80)	(-20,24)	(-5,28)	(-32,1)	(-35,21)	(-25,26)	(-22,35)	(-27,23)	(-44,38)	(6,16)	(15,10)	(-2,39)	
L2C 31>	(3,50)	(-16,69)	(8,32)	(-17,35)	(-31,109)	(1,57)	(-32,47)	(-34,40)	(6,33)	(-38,19)	(-28,32)	(-51,15)	(2,53)	(-10,46)	(-2,46)	(-13,1)	
L2C 32>	(1,31)	(-56,2)	(-45,54)	(-31,42)	(-3,23)	(-6,34)	(-33,19)	(-2,25)	(6,11)	(-7,15)	(-1,41)	(-17,26)	(-9,23)	(4,18)	(-36,23)	(-22,21)	
L2C 33>	(1,84)	(-2,61)	(-1,40)	(-18,87)	(6,57)	(-12,22)	(-36,30)	(-41,42)	(-5,25)	(-28,39)	(-3,1)	(-7,49)	(-37,16)	(0,53)	(-15,26)	(-22,40)	
L2C 34>	(1,50)	(-26,67)	(6,17)	(-18,68)	(-19,46)	(11,25)	(-7,25)	(-40,14)	(2,23)	(-37,29)	(-1,65)	(-11,46)	(-25,19)	(-12,1)	(-43,15)	(-28,31)	
L2C 35>	(-1,55)	(5,14)	(1,73)	(-28,27)	(-34,23)	(12,1)	(-31,20)	(-53,21)	(-11,22)	(-18,14)	(-7,21)	(-17,23)	(-19,32)	(-4,15)	(2,30)	(-14,17)	
L2C 36>	(1,66)	(-36,1)	(-5,33)	(-4,19)	(2,14)	(-22,21)	(-24,43)	(-26,39)	(-39,53)	(-16,35)	(-28,51)	(-34,45)	(-13,53)	(-44,36)	(-3,24)	(-38,11)	
L2C 37>	(0,37)	(1,25)	(-34,34)	(-1,54)	(7,24)	(-22,1)	(2,31)	(-2,15)	(-5,49)	(-35,31)	(-21,38)	(-42,16)	(-7,6)	(-16,32)	(-37,65)	(21,6)	
L2C 38>	(3,22)	(-1,47)	(-27,8)	(-34,1)	(-4,38)	(-13,28)	(-39,35)	(-2,32)	(-24,9)	(-45,13)	(1,52)	(-36,19)	(12,5)	(-14,9)	(-30,19)	(-7,14)	
L2C 39>	(-24,26)	(14,1)	(-36,49)	(-20,20)	(-1,34)	(-13,36)	(-23,44)	(-26,38)	(1,57)	(-33,16)	(-35,39)	(-21,36)	(-8,31)	(-47,24)	(-29,30)	(-40,21)	
L2C 40>	(5,31)	(-28,1)	(-41,14)	(1,26)	(-29,36)	(-26,27)	(-1,49)	(-7,10)	(-8,41)	(-38,19)	(-9,11)	(-15,6)	(-46,5)	(-36,12)	(-43,10)	(-21,30)	
L2C 41>	(3,47)	(1,43)	(-35,15)	(-1,33)	(-29,15)	(-12,12)	(-2,30)	(-32,1)	(-42,34)	(-41,50)	(-13,26)	(-26,32)	(-46,20)	(-44,26)	(-38,18)	(-18,23)	
L2C 42>	(-42,44)	(1,19)	(-39,35)	(-13,22)	(-53,1)	(-29,71)	(-5,19)	(-20,21)	(4,29)	(-1,51)	(-3,27)	(6,10)	(-44,21)	(-50,17)	(-11,17)	(3,17)	
L2C 43>	(1,28)	(-28,15)	(-15,13)	(-13,14)	(-7,15)	(-8,32)	(-49,10)	(3,17)	(5,10)	(-1,20)	(-14,18)	(-18,18)	(7,1)	(-46,12)	(0,35)	(-12,12)	
L2C 44>	(-21,35)	(-36,41)	(1,66)	(3,18)	(-5,25)	(-43,34)	(-18,35)	(-19,36)	(-28,1)	(-1,53)	(-41,17)	(-48,7)	(-35,11)	(-47,24)	(-34,44)	(-38,18)	
L2C 45>	(-34,32)	(1,23)	(-8,22)	(10,1)	(-1,59)	(-57,9)	(-26,22)	(-9,14)	(0,20)	(-6,20)	(-11,17)	(-45,52)	(-37,23)	(-40,32)	(-4,36)	(-27,19)	
L2C 46>	(1,38)	(-10,22)	(-8,10)	(-46,33)	(-31,17)	(-1,44)	(-23,14)	(-41,17)	(-35,11)	(-13,1)	(-44,62)	(-21,24)	(-2,17)	(-33,23)	(-42,12)	(-26,25)	
L2C 47>	(-32,21)	(-3,19)	(2,23)	(-29,57)	(1,24)	(8,30)	(-13,1)	(-50,11)	(-1,46)	(-51,36)	(0,17)	(-53,9)	(-59,22)	(-31,28)	(-39,39)	(-36,16)	
L2C 48>	(1,24)	(-39,15)	(-19,9)	(-32,9)	(-1,26)	(-7,18)	(-23,10)	(-28,10)	(-26,7)	(-11,9)	(3,1)	(-5,14)	(-53,7)	(-13,35)	(-31,12)	(-24,9)	
L2C 49>	(1,29)	(3,12)	(-25,1)	(-27,5)	(-20,19)	(-52,12)	(-10,12)	(-24,12)	(-48,11)	(-32,7)	(-2,13)	(-21,14)	(-4,13)	(-33,10)	(-3,33)	(-39,23)	
L2C 50>	(-23,50)	(-13,12)	(-36,36)	(-38,1)	(-1,39)	(-8,30)	(-56,8)	(-45,11)	(-39,11)	(2,9)	(1,16)	(-41,19)	(-49,9)	(-51,14)	(-34,57)	(7,19)	
L2C 51>	(-18,1)	(-48,15)	(-22,11)	(-39,14)	(-51,23)	(1,31)	(-49,9)	(-13,5)	(-28,31)	(-7,8)	(-25,32)	(-52,13)	(-9,8)	(-33,12)	(-26,10)	(-41,12)	
L2C 52>	(-6,1)	(-2,35)	(-26,23)	(2,13)	(-8,26)	(-15,14)	(-51,17)	(-16,15)	(-5,14)	(-24,8)	(3,7)	(-49,14)	(-47,8)	(-30,33)	(1,29)	(-50,10)	
L2C 53>	(-1,38)	(-24,1)	(-16,14)	(-52,14)	(-53,14)	(-6,28)	(-55,38)	(-26,21)	(-17,7)	(1,17)	(-47,8)	(-20,10)	(-38,5)	(-35,6)	(-13,6)	(-37,8)	
L2C 54>	(-16,10)	(0,7)	(3,6)	(-26,18)	(-1,12)	(-25,12)	(-49,1)	(-44,6)	(-19,13)	(-10,11)	(-45,6)	(-54,28)	(1,11)	(-18,10)	(-60,2)	(-57,4)	
L2C 55>	(-37,7)	(-42,5)	(-55,150)	(-48,7)	(-49,10)	(-24,23)	(-27,7)	(-29,14)	(-50,1)	(-13,10)	(-32,21)	(-20,6)	(0,7)	(2,8)	(-23,4)	(-44,4)	
L2C 56>	(-1,30)	(1,9)	(-38,5)	(-51,1)	(-37,5)	(-56,32)	(-10,8)	(-31,8)	(-52,5)	(-45,3)	(-14,11)	(-2,9)	(-28,4)	(-49,6)	(-46,7)	(-25,6)	
L2C 57>	(-10,10)	(-11,1)	(-31,7)	(-2,8)	(-32,5)	(-35,3)	(-54,8)	(-46,3)	(-18,14)	(-7,9)	(-20,27)	(-16,11)	(-3,11)	(-49,7)	(-1,11)	(-26,14)	
L2C 58>	(-10,6)	(2,8)	(-18,3)	(-34,12)	(-53,8)	(-26,32)	(-58,4)	(-32,9)	(-24,6)	(-1,15)	(-39,3)	(-11,9)	(-6,4)	(-60,6)	(4,1)	(-57,5)	
L2C 59>	(-59,16)	(-4,3)	(-46,4)	(-19,1)	(1,8)	(-33,5)	(-9,3)	(-12,2)	(-44,7)	(-2,9)	(-18,2)	(-50,4)	(-21,5)	(-34,5)	(-13,4)	(-41,5)	
L2C 60>	(-45,9)	(-60,4)	(1,11)	(-21,1)	(-2,12)	(-43,18)	(-49,4)	(-8,4)	(-10,8)	(-28,5)	(-6,3)	(-59,7)	(-23,21)	(-26,14)	(-1,3)	(-20,2)	
L2C 61>	(-26,7)	(-57,3)	(-9,5)	(-60,11)	(-53,3)	(-18,1)	(-52,24)	(-23,4)	(-36,3)	(-38,3)	(0,2)	(-32,21)	(-27,2)	(-37,4)	(-13,3)	(-50,5)	
L2C 62>	(-62,8)	(0,5)	(-44,5)	(-15,1)	(-58,2)	(-20,7)	(-34,4)	(-7,2)	(-32,4)	(-19,5)	(-27,3)	(-26,3)	(-52,5)	(-8,4)	(-28,2)	(-24,2)	
L2C 63>	(-32,2)	(-26,2)	(-53,3)	(-6,2)	(-43,1)	(-25,2)	(-29,1)	(-35,1)	(-39,3)	(-15,1)	(-17,2)	(-34,3)	(-56,3)	(-58,3)	(-19,1)	(-1,4)	

DRAM Statistics
 CHANNEL 0
 RQ ROW_BUFFER_HIT:      76346  ROW_BUFFER_MISS:     211566
 DBUS_CONGESTED:     130070
 WQ ROW_BUFFER_HIT:       1664  ROW_BUFFER_MISS:       2779  FULL:          0

 AVG_CONGESTED_CYCLE: 6
