
*** ChampSim Multicore Out-of-Order Simulator ***

Warmup Instructions: 1000000
Simulation Instructions: 10000000
Number of CPUs: 1
LLC sets: 2048
LLC ways: 16
Off-chip DRAM Size: 4096 MB Channels: 1 Width: 64-bit Data Rate: 3200 MT/s

CPU 0 runs /home/virtualcse/Data-Prefetching/ChampSim/dpc3_traces/605.mcf_s-782B.champsimtrace.xz
Ultra pref. initializing...
Ultra pref. initialized
Ultra pref. initializing...
Ultra pref. initialized

Warmup complete CPU 0 instructions: 1000004 cycles: 423692 (Simulation time: 0 hr 0 min 2 sec) 

Heartbeat CPU 0 instructions: 10000001 cycles: 40340060 heartbeat IPC: 0.247893 cumulative IPC: 0.225471 (Simulation time: 0 hr 0 min 27 sec) 
Finished CPU 0 instructions: 10000003 cycles: 44176570 cumulative IPC: 0.226364 (Simulation time: 0 hr 0 min 30 sec) 

CPU 0 Branch Prediction Accuracy: 96.656% MPKI: 9.62239 Average ROB Occupancy at Mispredict: 78.7087

ChampSim completed all CPUs

Region of Interest Statistics

CPU 0 cumulative IPC: 0.226364 instructions: 10000003 cycles: 44176570
L1D TOTAL     ACCESS:    4615742  HIT:    3014751  MISS:    1600991
L1D LOAD      ACCESS:    2109135  HIT:    1083614  MISS:    1025521
L1D RFO       ACCESS:     254401  HIT:     249501  MISS:       4900
L1D PREFETCH  ACCESS:    2252206  HIT:    1681636  MISS:     570570
L1D WRITEBACK ACCESS:          0  HIT:          0  MISS:          0
L1D PREFETCH  REQUESTED:   26913313  ISSUED:   11559415  USEFUL:     457627  USELESS:     167220
L1D AVERAGE MISS LATENCY: 86.5599 cycles
L1I TOTAL     ACCESS:     180541  HIT:     180539  MISS:          2
L1I LOAD      ACCESS:     180541  HIT:     180539  MISS:          2
L1I RFO       ACCESS:          0  HIT:          0  MISS:          0
L1I PREFETCH  ACCESS:          0  HIT:          0  MISS:          0
L1I WRITEBACK ACCESS:          0  HIT:          0  MISS:          0
L1I PREFETCH  REQUESTED:          0  ISSUED:          0  USEFUL:          0  USELESS:          0
L1I AVERAGE MISS LATENCY: 144.5 cycles
L2C TOTAL     ACCESS:    4305669  HIT:    1789330  MISS:    2516339
L2C LOAD      ACCESS:    1000214  HIT:     211272  MISS:     788942
L2C RFO       ACCESS:       4816  HIT:        483  MISS:       4333
L2C PREFETCH  ACCESS:    3250222  HIT:    1527201  MISS:    1723021
L2C WRITEBACK ACCESS:      50417  HIT:      50374  MISS:         43
L2C PREFETCH  REQUESTED:    9357757  ISSUED:    6838405  USEFUL:     126684  USELESS:    1706773
L2C AVERAGE MISS LATENCY: 135.262 cycles
LLC TOTAL     ACCESS:    2562677  HIT:    1402521  MISS:    1160156
LLC LOAD      ACCESS:     786647  HIT:     519381  MISS:     267266
LLC RFO       ACCESS:       4311  HIT:       3654  MISS:        657
LLC PREFETCH  ACCESS:    1725335  HIT:     833145  MISS:     892190
LLC WRITEBACK ACCESS:      46384  HIT:      46341  MISS:         43
LLC PREFETCH  REQUESTED:          0  ISSUED:          0  USEFUL:      38146  USELESS:     916558
LLC AVERAGE MISS LATENCY: 226.776 cycles
Major fault: 0 Minor fault: 10131

L1D -512>	(-3,11)	(0,0)	(13,0)	(-2,0)	(-434,0)	(6,0)	(65,0)	(27,0)	(-1,0)	(18,12)	(9,90)	(-26,0)	(-52,0)	(8,0)	(7,1)	(247,0)	
L1D -511>	(4,1)	(1,0)	(1,0)	(1,0)	(1,0)	(1,0)	(1,0)	(1,0)	(1,0)	(1,0)	(1,0)	(1,0)	(1,0)	(1,0)	(1,0)	(1,0)	
L1D -510>	(4,1)	(1,0)	(1,0)	(1,0)	(1,0)	(1,0)	(1,0)	(1,0)	(1,0)	(1,0)	(1,0)	(1,0)	(1,0)	(1,0)	(1,0)	(1,0)	
L1D -509>	(2,2)	(9,1)	(1,0)	(1,0)	(1,0)	(1,0)	(1,0)	(1,0)	(1,0)	(1,0)	(1,0)	(1,0)	(1,0)	(1,0)	(1,0)	(1,0)	
L1D -508>	(0,4)	(9,1)	(299,1)	(1,0)	(1,0)	(1,0)	(1,0)	(1,0)	(1,0)	(1,0)	(1,0)	(1,0)	(1,0)	(1,0)	(1,0)	(1,0)	
L1D -507>	(13,13)	(325,6)	(507,8)	(39,22)	(403,10)	(52,3)	(351,4)	(338,6)	(130,7)	(0,8)	(260,4)	(468,11)	(144,1)	(91,3)	(195,7)	(26,7)	
L1D -506>	(9,5)	(18,1)	(480,1)	(1,0)	(1,0)	(1,0)	(1,0)	(1,0)	(1,0)	(1,0)	(1,0)	(1,0)	(1,0)	(1,0)	(1,0)	(1,0)	
L1D -505>	(154,1)	(0,6)	(195,1)	(9,2)	(91,1)	(39,1)	(1,0)	(1,0)	(1,0)	(1,0)	(1,0)	(1,0)	(1,0)	(1,0)	(1,0)	(1,0)	
L1D -504>	(18,2)	(9,1)	(208,1)	(1,0)	(1,0)	(1,0)	(1,0)	(1,0)	(1,0)	(1,0)	(1,0)	(1,0)	(1,0)	(1,0)	(1,0)	(1,0)	
L1D -503>	(48,1)	(256,1)	(143,1)	(9,3)	(1,0)	(1,0)	(1,0)	(1,0)	(1,0)	(1,0)	(1,0)	(1,0)	(1,0)	(1,0)	(1,0)	(1,0)	
L1D -502>	(9,3)	(156,1)	(52,1)	(468,1)	(1,0)	(1,0)	(1,0)	(1,0)	(1,0)	(1,0)	(1,0)	(1,0)	(1,0)	(1,0)	(1,0)	(1,0)	
L1D -501>	(299,1)	(104,1)	(9,2)	(1,0)	(1,0)	(1,0)	(1,0)	(1,0)	(1,0)	(1,0)	(1,0)	(1,0)	(1,0)	(1,0)	(1,0)	(1,0)	
L1D -500>	(351,1)	(9,1)	(455,1)	(1,0)	(1,0)	(1,0)	(1,0)	(1,0)	(1,0)	(1,0)	(1,0)	(1,0)	(1,0)	(1,0)	(1,0)	(1,0)	
L1D -499>	(0,9)	(45,1)	(9,1)	(221,1)	(6,1)	(1,0)	(1,0)	(1,0)	(1,0)	(1,0)	(1,0)	(1,0)	(1,0)	(1,0)	(1,0)	(1,0)	
L1D -498>	(2,4)	(4,9)	(390,1)	(338,1)	(13,1)	(0,1)	(1,0)	(1,0)	(1,0)	(1,0)	(1,0)	(1,0)	(1,0)	(1,0)	(1,0)	(1,0)	
L1D -497>	(117,1)	(0,2)	(2,3)	(4,1)	(156,1)	(143,1)	(325,1)	(9,1)	(1,0)	(1,0)	(1,0)	(1,0)	(1,0)	(1,0)	(1,0)	(1,0)	
L1D -496>	(0,5)	(-8,7)	(264,1)	(4,1)	(52,1)	(91,1)	(273,1)	(296,1)	(1,0)	(1,0)	(1,0)	(1,0)	(1,0)	(1,0)	(1,0)	(1,0)	
L1D -495>	(3,1)	(1,0)	(1,0)	(1,0)	(1,0)	(1,0)	(1,0)	(1,0)	(1,0)	(1,0)	(1,0)	(1,0)	(1,0)	(1,0)	(1,0)	(1,0)	
L1D -494>	(377,16)	(13,19)	(195,12)	(325,33)	(65,1)	(26,18)	(403,21)	(494,22)	(260,9)	(130,21)	(78,23)	(364,14)	(91,10)	(338,10)	(117,13)	(156,36)	
L1D -493>	(425,1)	(399,1)	(370,5)	(132,2)	(272,1)	(0,2)	(494,2)	(1,0)	(1,0)	(1,0)	(1,0)	(1,0)	(1,0)	(1,0)	(1,0)	(1,0)	
L1D -492>	(0,19)	(492,10)	(272,9)	(373,1)	(2,1)	(490,16)	(372,71)	(270,1)	(370,10)	(271,2)	(131,1)	(269,3)	(-1,2)	(132,2)	(468,1)	(1,0)	
L1D -491>	(-3,1)	(130,1)	(372,7)	(1,0)	(1,0)	(1,0)	(1,0)	(1,0)	(1,0)	(1,0)	(1,0)	(1,0)	(1,0)	(1,0)	(1,0)	(1,0)	
L1D -490>	(0,6)	(269,1)	(22,2)	(39,1)	(-18,1)	(370,2)	(490,1)	(-9,1)	(492,3)	(26,1)	(1,0)	(1,0)	(1,0)	(1,0)	(1,0)	(1,0)	
L1D -489>	(0,1)	(372,3)	(1,0)	(1,0)	(1,0)	(1,0)	(1,0)	(1,0)	(1,0)	(1,0)	(1,0)	(1,0)	(1,0)	(1,0)	(1,0)	(1,0)	
L1D -488>	(-1,1)	(260,1)	(1,0)	(1,0)	(1,0)	(1,0)	(1,0)	(1,0)	(1,0)	(1,0)	(1,0)	(1,0)	(1,0)	(1,0)	(1,0)	(1,0)	
L1D -487>	(0,6)	(1,0)	(1,0)	(1,0)	(1,0)	(1,0)	(1,0)	(1,0)	(1,0)	(1,0)	(1,0)	(1,0)	(1,0)	(1,0)	(1,0)	(1,0)	
L1D -486>	(-8,4)	(494,1)	(41,1)	(301,1)	(1,0)	(1,0)	(1,0)	(1,0)	(1,0)	(1,0)	(1,0)	(1,0)	(1,0)	(1,0)	(1,0)	(1,0)	
L1D -485>	(0,1)	(4,6)	(65,1)	(2,3)	(312,2)	(-1,1)	(481,2)	(9,3)	(273,1)	(1,0)	(1,0)	(1,0)	(1,0)	(1,0)	(1,0)	(1,0)	
L1D -484>	(-13,13)	(65,2)	(78,3)	(156,3)	(13,2)	(4,6)	(-10,3)	(494,32)	(0,3)	(403,6)	(455,5)	(312,10)	(221,2)	(390,1)	(351,1)	(169,3)	
L1D -483>	(-10,2)	(2,2)	(486,3)	(1,0)	(1,0)	(1,0)	(1,0)	(1,0)	(1,0)	(1,0)	(1,0)	(1,0)	(1,0)	(1,0)	(1,0)	(1,0)	
L1D -482>	(9,1)	(416,1)	(1,0)	(1,0)	(1,0)	(1,0)	(1,0)	(1,0)	(1,0)	(1,0)	(1,0)	(1,0)	(1,0)	(1,0)	(1,0)	(1,0)	
L1D -481>	(403,36)	(13,20)	(52,23)	(325,38)	(377,36)	(468,1)	(78,21)	(117,39)	(416,58)	(338,34)	(312,25)	(104,26)	(208,32)	(39,21)	(455,40)	(364,19)	
L1D -480>	(2,1)	(9,2)	(480,1)	(1,0)	(1,0)	(1,0)	(1,0)	(1,0)	(1,0)	(1,0)	(1,0)	(1,0)	(1,0)	(1,0)	(1,0)	(1,0)	
L1D -479>	(351,1)	(323,1)	(9,2)	(1,0)	(1,0)	(1,0)	(1,0)	(1,0)	(1,0)	(1,0)	(1,0)	(1,0)	(1,0)	(1,0)	(1,0)	(1,0)	
L1D -478>	(8,11)	(-2,1)	(39,1)	(26,1)	(0,3)	(78,1)	(221,1)	(1,0)	(1,0)	(1,0)	(1,0)	(1,0)	(1,0)	(1,0)	(1,0)	(1,0)	
L1D -477>	(208,1)	(0,1)	(477,2)	(-3,1)	(1,0)	(1,0)	(1,0)	(1,0)	(1,0)	(1,0)	(1,0)	(1,0)	(1,0)	(1,0)	(1,0)	(1,0)	
L1D -476>	(91,1)	(9,1)	(1,0)	(1,0)	(1,0)	(1,0)	(1,0)	(1,0)	(1,0)	(1,0)	(1,0)	(1,0)	(1,0)	(1,0)	(1,0)	(1,0)	
L1D -475>	(9,4)	(104,1)	(1,0)	(1,0)	(1,0)	(1,0)	(1,0)	(1,0)	(1,0)	(1,0)	(1,0)	(1,0)	(1,0)	(1,0)	(1,0)	(1,0)	
L1D -474>	(460,1)	(9,2)	(1,0)	(1,0)	(1,0)	(1,0)	(1,0)	(1,0)	(1,0)	(1,0)	(1,0)	(1,0)	(1,0)	(1,0)	(1,0)	(1,0)	
L1D -473>	(-8,4)	(273,1)	(91,1)	(1,0)	(1,0)	(1,0)	(1,0)	(1,0)	(1,0)	(1,0)	(1,0)	(1,0)	(1,0)	(1,0)	(1,0)	(1,0)	
L1D -472>	(117,2)	(4,17)	(130,1)	(2,3)	(355,1)	(455,1)	(208,1)	(390,1)	(65,1)	(299,1)	(0,10)	(9,3)	(1,0)	(1,0)	(1,0)	(1,0)	
L1D -471>	(0,2)	(-26,1)	(429,1)	(416,2)	(130,1)	(4,4)	(2,2)	(442,1)	(39,1)	(221,1)	(91,1)	(169,1)	(182,1)	(65,5)	(273,1)	(1,0)	
L1D -470>	(-10,4)	(4,1)	(117,1)	(169,1)	(312,1)	(2,2)	(486,1)	(0,1)	(1,0)	(1,0)	(1,0)	(1,0)	(1,0)	(1,0)	(1,0)	(1,0)	
L1D -469>	(0,5)	(2,1)	(9,2)	(-26,1)	(429,1)	(1,0)	(1,0)	(1,0)	(1,0)	(1,0)	(1,0)	(1,0)	(1,0)	(1,0)	(1,0)	(1,0)	
L1D -468>	(195,34)	(468,98)	(208,1)	(325,39)	(377,20)	(78,41)	(39,39)	(442,51)	(182,31)	(91,57)	(143,35)	(65,27)	(494,19)	(-13,53)	(455,38)	(338,26)	
L1D -467>	(-3,1)	(10,1)	(-1,3)	(-8,2)	(9,3)	(480,2)	(2,1)	(117,1)	(1,0)	(1,0)	(1,0)	(1,0)	(1,0)	(1,0)	(1,0)	(1,0)	
L1D -466>	(-39,1)	(403,2)	(-3,1)	(9,2)	(8,1)	(312,2)	(1,0)	(1,0)	(1,0)	(1,0)	(1,0)	(1,0)	(1,0)	(1,0)	(1,0)	(1,0)	
L1D -465>	(8,5)	(-13,1)	(468,1)	(-2,1)	(442,1)	(312,1)	(117,1)	(9,1)	(221,1)	(1,0)	(1,0)	(1,0)	(1,0)	(1,0)	(1,0)	(1,0)	
L1D -464>	(-39,1)	(1,0)	(1,0)	(1,0)	(1,0)	(1,0)	(1,0)	(1,0)	(1,0)	(1,0)	(1,0)	(1,0)	(1,0)	(1,0)	(1,0)	(1,0)	
L1D -463>	(0,3)	(9,1)	(286,1)	(117,1)	(481,1)	(1,0)	(1,0)	(1,0)	(1,0)	(1,0)	(1,0)	(1,0)	(1,0)	(1,0)	(1,0)	(1,0)	
L1D -462>	(0,1)	(9,1)	(234,1)	(1,0)	(1,0)	(1,0)	(1,0)	(1,0)	(1,0)	(1,0)	(1,0)	(1,0)	(1,0)	(1,0)	(1,0)	(1,0)	
L1D -461>	(0,1)	(9,1)	(364,1)	(442,1)	(1,0)	(1,0)	(1,0)	(1,0)	(1,0)	(1,0)	(1,0)	(1,0)	(1,0)	(1,0)	(1,0)	(1,0)	
L1D -460>	(249,1)	(-10,23)	(18,1)	(54,1)	(-8,25)	(158,2)	(0,3)	(377,1)	(27,1)	(9,1)	(442,1)	(1,0)	(1,0)	(1,0)	(1,0)	(1,0)	
L1D -459>	(156,1)	(4,25)	(429,2)	(390,1)	(-39,1)	(2,8)	(338,1)	(247,1)	(455,1)	(117,1)	(277,1)	(9,2)	(-3,1)	(1,0)	(1,0)	(1,0)	
L1D -458>	(91,1)	(234,1)	(104,2)	(4,5)	(2,2)	(0,6)	(156,1)	(455,1)	(-26,1)	(390,1)	(-10,1)	(1,0)	(1,0)	(1,0)	(1,0)	(1,0)	
L1D -457>	(-10,6)	(349,1)	(2,1)	(275,1)	(9,3)	(369,1)	(0,1)	(442,1)	(1,0)	(1,0)	(1,0)	(1,0)	(1,0)	(1,0)	(1,0)	(1,0)	
L1D -456>	(2,2)	(91,1)	(1,0)	(1,0)	(1,0)	(1,0)	(1,0)	(1,0)	(1,0)	(1,0)	(1,0)	(1,0)	(1,0)	(1,0)	(1,0)	(1,0)	
L1D -455>	(325,57)	(221,29)	(130,86)	(416,47)	(13,27)	(455,69)	(-39,12)	(299,41)	(26,34)	(247,1)	(0,77)	(169,23)	(351,22)	(442,53)	(234,34)	(364,21)	
L1D -454>	(0,6)	(373,1)	(61,1)	(480,9)	(45,1)	(1,0)	(1,0)	(1,0)	(1,0)	(1,0)	(1,0)	(1,0)	(1,0)	(1,0)	(1,0)	(1,0)	
L1D -453>	(-3,1)	(0,1)	(1,0)	(1,0)	(1,0)	(1,0)	(1,0)	(1,0)	(1,0)	(1,0)	(1,0)	(1,0)	(1,0)	(1,0)	(1,0)	(1,0)	
L1D -452>	(8,8)	(-13,1)	(9,2)	(117,1)	(221,1)	(0,3)	(1,0)	(1,0)	(1,0)	(1,0)	(1,0)	(1,0)	(1,0)	(1,0)	(1,0)	(1,0)	
L1D -451>	(347,1)	(2,2)	(0,4)	(18,1)	(9,2)	(126,2)	(-3,1)	(450,1)	(1,0)	(1,0)	(1,0)	(1,0)	(1,0)	(1,0)	(1,0)	(1,0)	
L1D -450>	(312,1)	(2,111)	(450,17)	(448,46)	(9,2)	(-52,1)	(8,3)	(78,1)	(76,13)	(-39,1)	(1,0)	(1,0)	(1,0)	(1,0)	(1,0)	(1,0)	
L1D -449>	(0,1)	(18,1)	(445,1)	(1,0)	(1,0)	(1,0)	(1,0)	(1,0)	(1,0)	(1,0)	(1,0)	(1,0)	(1,0)	(1,0)	(1,0)	(1,0)	
L1D -448>	(0,25)	(-2,21)	(403,1)	(2,6)	(-3,2)	(448,15)	(76,37)	(450,7)	(74,7)	(122,5)	(124,20)	(446,4)	(123,1)	(73,3)	(75,1)	(445,2)	
L1D -447>	(-1,2)	(444,7)	(124,1)	(13,1)	(1,0)	(1,0)	(1,0)	(1,0)	(1,0)	(1,0)	(1,0)	(1,0)	(1,0)	(1,0)	(1,0)	(1,0)	
L1D -446>	(-2,3)	(0,6)	(448,69)	(122,1)	(124,1)	(4,23)	(2,20)	(234,1)	(299,1)	(169,2)	(13,2)	(52,1)	(130,1)	(104,1)	(-13,1)	(1,0)	
L1D -445>	(-26,1)	(0,14)	(429,1)	(104,1)	(-39,1)	(2,4)	(4,1)	(364,1)	(234,1)	(-8,3)	(273,2)	(-45,1)	(143,1)	(-9,1)	(442,3)	(91,1)	
L1D -444>	(-1,1)	(-10,10)	(0,2)	(4,2)	(455,2)	(9,1)	(288,1)	(429,1)	(1,0)	(1,0)	(1,0)	(1,0)	(1,0)	(1,0)	(1,0)	(1,0)	
L1D -443>	(4,2)	(6,1)	(0,1)	(9,1)	(78,1)	(1,0)	(1,0)	(1,0)	(1,0)	(1,0)	(1,0)	(1,0)	(1,0)	(1,0)	(1,0)	(1,0)	
L1D -442>	(234,24)	(91,1)	(403,31)	(156,30)	(260,20)	(117,22)	(208,27)	(338,24)	(13,26)	(130,16)	(143,25)	(468,39)	(52,25)	(455,93)	(377,16)	(364,27)	
L1D -441>	(9,3)	(178,1)	(-65,1)	(7,1)	(312,1)	(1,0)	(1,0)	(1,0)	(1,0)	(1,0)	(1,0)	(1,0)	(1,0)	(1,0)	(1,0)	(1,0)	
L1D -440>	(4,1)	(230,1)	(388,1)	(113,1)	(-39,1)	(325,1)	(18,1)	(1,0)	(1,0)	(1,0)	(1,0)	(1,0)	(1,0)	(1,0)	(1,0)	(1,0)	
L1D -439>	(-13,1)	(8,14)	(9,2)	(117,1)	(234,1)	(17,1)	(182,1)	(1,0)	(1,0)	(1,0)	(1,0)	(1,0)	(1,0)	(1,0)	(1,0)	(1,0)	
L1D -438>	(334,1)	(-30,1)	(39,1)	(9,2)	(18,1)	(0,1)	(299,1)	(1,0)	(1,0)	(1,0)	(1,0)	(1,0)	(1,0)	(1,0)	(1,0)	(1,0)	
L1D -437>	(229,1)	(299,1)	(9,1)	(104,1)	(463,1)	(325,1)	(0,1)	(377,1)	(1,0)	(1,0)	(1,0)	(1,0)	(1,0)	(1,0)	(1,0)	(1,0)	
L1D -436>	(241,1)	(0,7)	(9,2)	(-27,1)	(-54,1)	(59,1)	(1,0)	(1,0)	(1,0)	(1,0)	(1,0)	(1,0)	(1,0)	(1,0)	(1,0)	(1,0)	
L1D -435>	(-8,1)	(299,1)	(9,1)	(1,0)	(1,0)	(1,0)	(1,0)	(1,0)	(1,0)	(1,0)	(1,0)	(1,0)	(1,0)	(1,0)	(1,0)	(1,0)	
L1D -434>	(-10,1)	(-8,7)	(0,2)	(2,60)	(13,1)	(299,1)	(68,1)	(-3,1)	(9,2)	(1,0)	(1,0)	(1,0)	(1,0)	(1,0)	(1,0)	(1,0)	
L1D -433>	(2,8)	(4,30)	(26,1)	(325,1)	(52,1)	(286,1)	(432,3)	(-45,1)	(0,3)	(9,1)	(1,0)	(1,0)	(1,0)	(1,0)	(1,0)	(1,0)	
L1D -432>	(430,3)	(68,7)	(66,5)	(-10,3)	(247,1)	(-26,5)	(4,10)	(2,24)	(442,1)	(-3,5)	(78,1)	(432,26)	(0,24)	(-2,22)	(1,2)	(434,4)	
L1D -431>	(-10,17)	(260,1)	(2,2)	(13,1)	(442,1)	(52,1)	(432,6)	(0,1)	(9,1)	(369,1)	(412,2)	(486,1)	(1,0)	(1,0)	(1,0)	(1,0)	
L1D -430>	(2,36)	(430,3)	(412,8)	(466,1)	(-2,12)	(432,7)	(7,1)	(0,2)	(9,1)	(18,1)	(1,0)	(1,0)	(1,0)	(1,0)	(1,0)	(1,0)	
L1D -429>	(234,21)	(416,36)	(117,18)	(325,20)	(39,22)	(0,76)	(195,19)	(260,25)	(247,28)	(338,1)	(377,28)	(455,20)	(-52,22)	(208,24)	(26,22)	(390,24)	
L1D -428>	(-2,17)	(2,2)	(428,9)	(430,6)	(163,1)	(412,18)	(288,9)	(-3,30)	(286,2)	(0,5)	(416,1)	(480,2)	(-13,1)	(410,4)	(426,1)	(367,1)	
L1D -427>	(0,8)	(26,1)	(139,1)	(286,1)	(338,1)	(412,19)	(9,1)	(-45,1)	(1,0)	(1,0)	(1,0)	(1,0)	(1,0)	(1,0)	(1,0)	(1,0)	
L1D -426>	(0,2)	(428,3)	(8,13)	(-2,2)	(208,1)	(351,1)	(288,1)	(195,1)	(18,1)	(182,1)	(234,1)	(1,0)	(1,0)	(1,0)	(1,0)	(1,0)	
L1D -425>	(-1,1)	(104,1)	(412,4)	(9,1)	(1,0)	(1,0)	(1,0)	(1,0)	(1,0)	(1,0)	(1,0)	(1,0)	(1,0)	(1,0)	(1,0)	(1,0)	
L1D -424>	(0,4)	(18,1)	(104,1)	(411,1)	(1,0)	(1,0)	(1,0)	(1,0)	(1,0)	(1,0)	(1,0)	(1,0)	(1,0)	(1,0)	(1,0)	(1,0)	
L1D -423>	(8,1)	(91,1)	(1,0)	(1,0)	(1,0)	(1,0)	(1,0)	(1,0)	(1,0)	(1,0)	(1,0)	(1,0)	(1,0)	(1,0)	(1,0)	(1,0)	
L1D -422>	(9,1)	(1,0)	(1,0)	(1,0)	(1,0)	(1,0)	(1,0)	(1,0)	(1,0)	(1,0)	(1,0)	(1,0)	(1,0)	(1,0)	(1,0)	(1,0)	
L1D -421>	(390,1)	(9,2)	(312,1)	(382,1)	(1,0)	(1,0)	(1,0)	(1,0)	(1,0)	(1,0)	(1,0)	(1,0)	(1,0)	(1,0)	(1,0)	(1,0)	
L1D -420>	(2,12)	(4,29)	(390,2)	(117,1)	(208,1)	(234,1)	(312,2)	(286,1)	(104,1)	(221,1)	(182,1)	(78,1)	(338,1)	(1,0)	(1,0)	(1,0)	
L1D -419>	(338,3)	(312,1)	(0,3)	(427,3)	(208,2)	(182,1)	(4,16)	(273,1)	(299,11)	(195,2)	(260,6)	(78,3)	(-13,5)	(286,1)	(481,2)	(-52,1)	
L1D -418>	(-10,16)	(221,1)	(0,5)	(2,19)	(13,1)	(418,1)	(312,1)	(457,1)	(369,1)	(325,1)	(9,1)	(-26,1)	(1,0)	(1,0)	(1,0)	(1,0)	
L1D -417>	(39,1)	(4,1)	(2,1)	(-73,1)	(0,1)	(9,1)	(-52,1)	(104,1)	(403,1)	(1,0)	(1,0)	(1,0)	(1,0)	(1,0)	(1,0)	(1,0)	
L1D -416>	(403,37)	(247,29)	(286,52)	(260,21)	(0,64)	(130,1)	(299,18)	(234,51)	(104,31)	(429,15)	(312,19)	(351,17)	(-39,10)	(364,30)	(221,20)	(416,93)	
L1D -415>	(-8,7)	(9,2)	(-1,1)	(282,1)	(0,4)	(13,1)	(454,1)	(65,1)	(8,2)	(312,1)	(1,0)	(1,0)	(1,0)	(1,0)	(1,0)	(1,0)	
L1D -414>	(2,104)	(412,2)	(414,2)	(273,1)	(416,1)	(0,0)	(1,0)	(1,0)	(1,0)	(1,0)	(1,0)	(1,0)	(1,0)	(1,0)	(1,0)	(1,0)	
L1D -413>	(8,51)	(-26,1)	(2,1)	(-3,1)	(0,1)	(280,1)	(278,2)	(-2,1)	(104,1)	(234,1)	(169,1)	(1,0)	(1,0)	(1,0)	(1,0)	(1,0)	
L1D -412>	(-2,58)	(280,22)	(2,10)	(286,8)	(414,28)	(412,7)	(390,1)	(428,4)	(278,4)	(-3,13)	(410,8)	(-56,1)	(426,5)	(0,6)	(416,1)	(78,1)	
L1D -411>	(104,1)	(143,1)	(0,1)	(112,1)	(286,1)	(247,1)	(13,1)	(377,1)	(1,0)	(1,0)	(1,0)	(1,0)	(1,0)	(1,0)	(1,0)	(1,0)	
L1D -410>	(412,44)	(0,1)	(-2,17)	(281,1)	(280,1)	(39,1)	(8,1)	(428,1)	(288,1)	(234,1)	(91,1)	(9,1)	(1,0)	(1,0)	(1,0)	(1,0)	
L1D -409>	(-3,9)	(0,6)	(1,0)	(1,0)	(1,0)	(1,0)	(1,0)	(1,0)	(1,0)	(1,0)	(1,0)	(1,0)	(1,0)	(1,0)	(1,0)	(1,0)	
L1D -408>	(278,1)	(-8,3)	(0,1)	(382,1)	(1,0)	(1,0)	(1,0)	(1,0)	(1,0)	(1,0)	(1,0)	(1,0)	(1,0)	(1,0)	(1,0)	(1,0)	
L1D -407>	(0,1)	(4,46)	(2,13)	(39,2)	(299,2)	(208,1)	(468,1)	(-65,2)	(260,2)	(377,1)	(147,1)	(312,2)	(290,1)	(65,1)	(351,1)	(9,1)	
L1D -406>	(234,3)	(0,9)	(104,2)	(221,2)	(78,1)	(-8,4)	(4,9)	(182,3)	(247,1)	(195,2)	(415,1)	(90,1)	(299,1)	(364,1)	(481,1)	(273,1)	
L1D -405>	(-8,2)	(-10,16)	(4,5)	(407,1)	(2,3)	(351,1)	(299,1)	(234,1)	(416,1)	(397,1)	(9,4)	(1,0)	(1,0)	(1,0)	(1,0)	(1,0)	
L1D -404>	(4,1)	(2,1)	(9,2)	(351,1)	(403,1)	(130,1)	(377,1)	(-39,1)	(1,0)	(1,0)	(1,0)	(1,0)	(1,0)	(1,0)	(1,0)	(1,0)	
L1D -403>	(13,24)	(390,42)	(286,28)	(403,112)	(-78,1)	(130,63)	(260,38)	(-26,18)	(0,108)	(26,36)	(156,40)	(416,76)	(377,45)	(65,36)	(208,119)	(468,53)	
L1D -402>	(61,1)	(-8,1)	(9,2)	(10,1)	(-13,1)	(1,0)	(1,0)	(1,0)	(1,0)	(1,0)	(1,0)	(1,0)	(1,0)	(1,0)	(1,0)	(1,0)	
L1D -401>	(0,6)	(104,1)	(2,1)	(388,1)	(-1,1)	(169,1)	(9,1)	(78,1)	(1,0)	(1,0)	(1,0)	(1,0)	(1,0)	(1,0)	(1,0)	(1,0)	
L1D -400>	(-2,5)	(8,29)	(0,9)	(7,2)	(-13,1)	(273,1)	(299,1)	(54,1)	(104,1)	(9,1)	(169,1)	(1,0)	(1,0)	(1,0)	(1,0)	(1,0)	
L1D -399>	(0,4)	(152,1)	(360,1)	(-4,1)	(18,1)	(9,5)	(195,1)	(-39,2)	(-13,1)	(1,0)	(1,0)	(1,0)	(1,0)	(1,0)	(1,0)	(1,0)	
L1D -398>	(8,4)	(442,1)	(0,2)	(52,2)	(221,1)	(250,1)	(91,1)	(-65,1)	(1,0)	(1,0)	(1,0)	(1,0)	(1,0)	(1,0)	(1,0)	(1,0)	
L1D -397>	(0,4)	(104,1)	(65,1)	(8,1)	(9,1)	(52,1)	(13,1)	(1,0)	(1,0)	(1,0)	(1,0)	(1,0)	(1,0)	(1,0)	(1,0)	(1,0)	
L1D -396>	(-91,1)	(390,1)	(9,1)	(13,1)	(1,0)	(1,0)	(1,0)	(1,0)	(1,0)	(1,0)	(1,0)	(1,0)	(1,0)	(1,0)	(1,0)	(1,0)	
L1D -395>	(-10,3)	(-8,9)	(-60,1)	(377,3)	(91,1)	(9,1)	(-13,1)	(65,1)	(1,0)	(1,0)	(1,0)	(1,0)	(1,0)	(1,0)	(1,0)	(1,0)	
L1D -394>	(0,1)	(392,3)	(4,19)	(2,74)	(130,0)	(13,1)	(-91,0)	(39,0)	(169,0)	(468,0)	(65,1)	(325,0)	(368,1)	(9,0)	(-65,0)	(174,0)	
L1D -393>	(0,6)	(2,3)	(13,1)	(191,1)	(-52,1)	(-10,4)	(-8,3)	(165,1)	(152,1)	(351,2)	(78,1)	(87,1)	(52,2)	(61,1)	(48,1)	(4,9)	
L1D -392>	(-10,10)	(-1,3)	(0,5)	(394,9)	(4,6)	(2,6)	(9,3)	(156,1)	(260,2)	(392,5)	(13,1)	(377,1)	(-2,34)	(322,3)	(45,1)	(170,5)	
L1D -391>	(0,8)	(4,1)	(9,1)	(143,1)	(208,1)	(1,0)	(1,0)	(1,0)	(1,0)	(1,0)	(1,0)	(1,0)	(1,0)	(1,0)	(1,0)	(1,0)	
L1D -390>	(299,27)	(390,90)	(429,1)	(260,24)	(0,79)	(-13,28)	(26,10)	(65,44)	(91,81)	(247,25)	(39,21)	(169,30)	(104,31)	(208,26)	(364,37)	(377,60)	
L1D -389>	(2,3)	(9,2)	(295,1)	(35,1)	(91,1)	(-8,1)	(1,0)	(1,0)	(1,0)	(1,0)	(1,0)	(1,0)	(1,0)	(1,0)	(1,0)	(1,0)	
L1D -388>	(373,1)	(18,1)	(0,3)	(9,1)	(338,1)	(1,0)	(1,0)	(1,0)	(1,0)	(1,0)	(1,0)	(1,0)	(1,0)	(1,0)	(1,0)	(1,0)	
L1D -387>	(8,7)	(117,1)	(299,1)	(1,0)	(1,0)	(1,0)	(1,0)	(1,0)	(1,0)	(1,0)	(1,0)	(1,0)	(1,0)	(1,0)	(1,0)	(1,0)	
L1D -386>	(0,2)	(204,1)	(347,2)	(165,1)	(299,1)	(1,0)	(1,0)	(1,0)	(1,0)	(1,0)	(1,0)	(1,0)	(1,0)	(1,0)	(1,0)	(1,0)	
L1D -385>	(1,1)	(442,1)	(52,2)	(450,1)	(18,1)	(-65,1)	(273,1)	(1,0)	(1,0)	(1,0)	(1,0)	(1,0)	(1,0)	(1,0)	(1,0)	(1,0)	
L1D -384>	(8,1)	(9,1)	(1,0)	(1,0)	(1,0)	(1,0)	(1,0)	(1,0)	(1,0)	(1,0)	(1,0)	(1,0)	(1,0)	(1,0)	(1,0)	(1,0)	
L1D -383>	(9,2)	(260,1)	(-8,2)	(1,0)	(1,0)	(1,0)	(1,0)	(1,0)	(1,0)	(1,0)	(1,0)	(1,0)	(1,0)	(1,0)	(1,0)	(1,0)	
L1D -382>	(-8,17)	(13,2)	(0,8)	(-90,1)	(9,1)	(39,1)	(45,1)	(-39,1)	(1,0)	(1,0)	(1,0)	(1,0)	(1,0)	(1,0)	(1,0)	(1,0)	
L1D -381>	(377,1)	(4,46)	(2,13)	(173,1)	(65,1)	(351,1)	(286,1)	(312,2)	(390,2)	(91,1)	(147,1)	(182,2)	(-39,1)	(416,1)	(78,1)	(0,2)	
L1D -380>	(78,3)	(299,2)	(65,4)	(364,3)	(325,2)	(351,5)	(-8,14)	(429,2)	(507,6)	(0,7)	(416,1)	(260,1)	(4,14)	(2,5)	(-13,2)	(-39,1)	
L1D -379>	(-10,21)	(195,2)	(-26,1)	(8,1)	(54,1)	(460,2)	(2,5)	(4,4)	(0,4)	(45,1)	(9,2)	(388,1)	(18,1)	(486,1)	(1,0)	(1,0)	
L1D -378>	(1,1)	(1,0)	(1,0)	(1,0)	(1,0)	(1,0)	(1,0)	(1,0)	(1,0)	(1,0)	(1,0)	(1,0)	(1,0)	(1,0)	(1,0)	(1,0)	
L1D -377>	(377,88)	(-13,25)	(117,1)	(390,17)	(0,75)	(65,49)	(26,21)	(78,50)	(299,40)	(260,35)	(247,24)	(-104,29)	(-65,14)	(351,48)	(416,56)	(208,29)	
L1D -376>	(-8,2)	(280,1)	(347,1)	(74,1)	(1,0)	(1,0)	(1,0)	(1,0)	(1,0)	(1,0)	(1,0)	(1,0)	(1,0)	(1,0)	(1,0)	(1,0)	
L1D -375>	(2,10)	(22,2)	(221,1)	(364,1)	(-76,1)	(-52,1)	(1,0)	(1,0)	(1,0)	(1,0)	(1,0)	(1,0)	(1,0)	(1,0)	(1,0)	(1,0)	
L1D -374>	(2,82)	(39,1)	(8,77)	(374,6)	(1,1)	(9,1)	(-2,1)	(-76,6)	(1,0)	(1,0)	(1,0)	(1,0)	(1,0)	(1,0)	(1,0)	(1,0)	
L1D -373>	(-2,3)	(0,8)	(61,1)	(-39,2)	(490,1)	(1,0)	(1,0)	(1,0)	(1,0)	(1,0)	(1,0)	(1,0)	(1,0)	(1,0)	(1,0)	(1,0)	
L1D -372>	(374,5)	(-2,49)	(0,54)	(2,4)	(372,42)	(370,46)	(48,16)	(-3,44)	(132,4)	(292,3)	(492,7)	(270,6)	(-76,6)	(493,1)	(490,45)	(272,10)	
L1D -371>	(48,9)	(169,1)	(9,1)	(132,6)	(0,1)	(-76,4)	(-13,1)	(1,0)	(1,0)	(1,0)	(1,0)	(1,0)	(1,0)	(1,0)	(1,0)	(1,0)	
L1D -370>	(-2,16)	(312,1)	(0,7)	(2,20)	(132,2)	(372,36)	(130,1)	(-90,1)	(272,1)	(368,4)	(490,2)	(270,1)	(370,1)	(221,1)	(9,1)	(1,0)	
L1D -369>	(-8,6)	(195,4)	(-3,1)	(403,1)	(169,1)	(299,1)	(9,2)	(-76,2)	(1,0)	(1,0)	(1,0)	(1,0)	(1,0)	(1,0)	(1,0)	(1,0)	
L1D -368>	(234,2)	(4,52)	(2,36)	(-2,15)	(170,5)	(392,6)	(182,3)	(370,6)	(390,3)	(368,3)	(9,3)	(39,1)	(273,1)	(377,1)	(442,2)	(0,7)	
L1D -367>	(-52,14)	(364,3)	(-26,2)	(455,1)	(247,3)	(0,4)	(351,1)	(65,1)	(39,3)	(117,1)	(403,4)	(312,1)	(221,2)	(377,1)	(4,10)	(2,8)	
L1D -366>	(-10,17)	(368,16)	(-2,6)	(366,3)	(-68,1)	(4,2)	(143,2)	(195,2)	(156,2)	(234,2)	(-26,2)	(442,1)	(429,1)	(91,1)	(2,23)	(0,1)	
L1D -365>	(4,2)	(-3,9)	(392,2)	(9,1)	(1,0)	(1,0)	(1,0)	(1,0)	(1,0)	(1,0)	(1,0)	(1,0)	(1,0)	(1,0)	(1,0)	(1,0)	
L1D -364>	(0,106)	(-13,1)	(312,26)	(208,71)	(26,55)	(117,59)	(221,38)	(494,4)	(299,75)	(377,67)	(364,85)	(234,36)	(195,49)	(169,41)	(39,29)	(416,24)	
L1D -363>	(204,2)	(-90,1)	(-82,1)	(191,1)	(2,7)	(347,1)	(403,1)	(48,1)	(240,1)	(-68,24)	(-10,1)	(9,1)	(10,1)	(338,1)	(1,0)	(1,0)	
L1D -362>	(242,1)	(2,29)	(240,7)	(351,2)	(312,1)	(299,2)	(286,1)	(362,1)	(154,1)	(152,1)	(-2,2)	(0,2)	(364,4)	(-70,2)	(377,1)	(117,1)	
L1D -361>	(8,12)	(0,3)	(238,1)	(-2,2)	(-68,21)	(9,1)	(-1,1)	(-71,1)	(1,0)	(1,0)	(1,0)	(1,0)	(1,0)	(1,0)	(1,0)	(1,0)	
L1D -360>	(0,13)	(2,2)	(138,1)	(-2,7)	(240,13)	(360,20)	(239,3)	(357,3)	(237,3)	(-1,1)	(334,1)	(451,1)	(-104,1)	(-132,3)	(-39,2)	(358,3)	
L1D -359>	(442,1)	(-109,1)	(360,1)	(52,1)	(0,1)	(9,2)	(8,3)	(-65,1)	(195,1)	(1,0)	(1,0)	(1,0)	(1,0)	(1,0)	(1,0)	(1,0)	
L1D -358>	(360,1)	(-45,1)	(9,3)	(-131,1)	(0,2)	(1,0)	(1,0)	(1,0)	(1,0)	(1,0)	(1,0)	(1,0)	(1,0)	(1,0)	(1,0)	(1,0)	
L1D -357>	(-143,1)	(91,1)	(-52,1)	(234,1)	(-104,1)	(1,0)	(1,0)	(1,0)	(1,0)	(1,0)	(1,0)	(1,0)	(1,0)	(1,0)	(1,0)	(1,0)	
L1D -356>	(-8,13)	(-10,3)	(91,1)	(9,1)	(1,0)	(1,0)	(1,0)	(1,0)	(1,0)	(1,0)	(1,0)	(1,0)	(1,0)	(1,0)	(1,0)	(1,0)	
L1D -355>	(-13,1)	(0,10)	(2,25)	(117,1)	(4,58)	(182,1)	(338,2)	(-117,1)	(364,1)	(325,2)	(455,1)	(273,1)	(-35,1)	(104,1)	(91,2)	(143,1)	
L1D -354>	(-13,3)	(273,2)	(91,2)	(221,3)	(364,7)	(0,15)	(-10,2)	(-8,5)	(143,1)	(4,8)	(286,1)	(2,1)	(325,3)	(351,3)	(195,3)	(-65,2)	
L1D -353>	(-10,15)	(-39,1)	(4,1)	(271,1)	(2,11)	(338,1)	(221,1)	(78,1)	(325,2)	(-63,2)	(13,1)	(390,1)	(486,2)	(0,1)	(429,1)	(9,2)	
L1D -352>	(0,4)	(-36,1)	(429,1)	(90,1)	(221,1)	(1,0)	(1,0)	(1,0)	(1,0)	(1,0)	(1,0)	(1,0)	(1,0)	(1,0)	(1,0)	(1,0)	
L1D -351>	(195,49)	(351,101)	(117,36)	(104,56)	(-26,41)	(234,1)	(156,34)	(260,37)	(39,31)	(52,59)	(0,105)	(299,48)	(221,30)	(286,52)	(208,41)	(338,46)	
L1D -350>	(90,2)	(155,8)	(181,2)	(194,2)	(204,2)	(207,2)	(220,1)	(2,1)	(-8,5)	(9,3)	(8,1)	(480,6)	(38,1)	(51,2)	(64,2)	(77,2)	
L1D -349>	(286,1)	(2,1)	(282,2)	(113,1)	(8,1)	(352,1)	(9,2)	(-104,1)	(261,6)	(1,0)	(1,0)	(1,0)	(1,0)	(1,0)	(1,0)	(1,0)	
L1D -348>	(8,15)	(-52,1)	(9,1)	(65,1)	(234,1)	(39,1)	(346,1)	(143,1)	(1,0)	(1,0)	(1,0)	(1,0)	(1,0)	(1,0)	(1,0)	(1,0)	
L1D -347>	(0,7)	(312,1)	(5,1)	(48,1)	(-1,2)	(195,1)	(-39,2)	(152,1)	(18,1)	(1,0)	(1,0)	(1,0)	(1,0)	(1,0)	(1,0)	(1,0)	
L1D -346>	(8,3)	(0,10)	(234,2)	(52,2)	(-36,1)	(112,1)	(1,1)	(-45,1)	(333,1)	(1,0)	(1,0)	(1,0)	(1,0)	(1,0)	(1,0)	(1,0)	
L1D -345>	(8,1)	(9,1)	(299,1)	(1,0)	(1,0)	(1,0)	(1,0)	(1,0)	(1,0)	(1,0)	(1,0)	(1,0)	(1,0)	(1,0)	(1,0)	(1,0)	
L1D -344>	(96,1)	(9,2)	(247,1)	(18,1)	(0,1)	(1,0)	(1,0)	(1,0)	(1,0)	(1,0)	(1,0)	(1,0)	(1,0)	(1,0)	(1,0)	(1,0)	
L1D -343>	(0,3)	(-26,1)	(-8,7)	(9,2)	(182,1)	(65,1)	(299,1)	(1,0)	(1,0)	(1,0)	(1,0)	(1,0)	(1,0)	(1,0)	(1,0)	(1,0)	
L1D -342>	(4,49)	(0,3)	(2,18)	(26,1)	(78,2)	(351,1)	(325,1)	(52,1)	(143,1)	(312,1)	(364,1)	(-13,2)	(39,1)	(247,2)	(-9,1)	(104,1)	
L1D -341>	(338,3)	(403,6)	(-78,2)	(-39,2)	(78,4)	(-26,2)	(39,7)	(-10,2)	(234,1)	(4,18)	(91,1)	(2,2)	(-104,1)	(-13,2)	(351,1)	(364,2)	
L1D -340>	(-52,1)	(-26,1)	(-10,20)	(2,1)	(4,17)	(377,1)	(364,2)	(-13,1)	(247,1)	(-115,1)	(210,2)	(195,29)	(403,1)	(1,0)	(1,0)	(1,0)	
L1D -339>	(4,1)	(1,0)	(1,0)	(1,0)	(1,0)	(1,0)	(1,0)	(1,0)	(1,0)	(1,0)	(1,0)	(1,0)	(1,0)	(1,0)	(1,0)	(1,0)	
L1D -338>	(273,74)	(377,32)	(234,44)	(91,43)	(117,72)	(208,40)	(78,41)	(26,32)	(104,26)	(195,32)	(390,1)	(-26,45)	(338,116)	(260,56)	(299,50)	(52,51)	
L1D -337>	(-8,4)	(0,6)	(295,1)	(-1,1)	(1,1)	(480,1)	(25,1)	(38,1)	(-13,1)	(1,0)	(1,0)	(1,0)	(1,0)	(1,0)	(1,0)	(1,0)	
L1D -336>	(351,1)	(325,1)	(0,1)	(8,8)	(375,1)	(65,1)	(-13,1)	(-78,1)	(364,1)	(234,1)	(1,0)	(1,0)	(1,0)	(1,0)	(1,0)	(1,0)	
L1D -335>	(8,14)	(-13,1)	(10,1)	(0,1)	(65,1)	(-3,1)	(260,1)	(117,1)	(1,0)	(1,0)	(1,0)	(1,0)	(1,0)	(1,0)	(1,0)	(1,0)	
L1D -334>	(0,9)	(48,1)	(113,1)	(165,1)	(2,1)	(9,1)	(-13,1)	(-52,1)	(234,1)	(208,2)	(-39,2)	(91,1)	(299,1)	(1,0)	(1,0)	(1,0)	
L1D -333>	(234,1)	(195,1)	(333,1)	(52,2)	(0,1)	(117,1)	(273,2)	(1,0)	(1,0)	(1,0)	(1,0)	(1,0)	(1,0)	(1,0)	(1,0)	(1,0)	
L1D -332>	(117,1)	(-18,1)	(-1,1)	(333,1)	(8,2)	(9,2)	(1,0)	(1,0)	(1,0)	(1,0)	(1,0)	(1,0)	(1,0)	(1,0)	(1,0)	(1,0)	
L1D -331>	(-8,1)	(14,1)	(3,1)	(-52,1)	(9,2)	(234,1)	(1,0)	(1,0)	(1,0)	(1,0)	(1,0)	(1,0)	(1,0)	(1,0)	(1,0)	(1,0)	
L1D -330>	(2,107)	(-8,11)	(328,5)	(-10,2)	(330,1)	(9,3)	(-39,1)	(264,1)	(1,0)	(1,0)	(1,0)	(1,0)	(1,0)	(1,0)	(1,0)	(1,0)	
L1D -329>	(-52,1)	(234,6)	(4,60)	(2,29)	(130,1)	(429,1)	(52,2)	(182,2)	(273,1)	(-130,1)	(312,1)	(-65,2)	(78,1)	(195,2)	(416,1)	(65,1)	
L1D -328>	(328,2)	(-3,3)	(156,2)	(-2,33)	(2,26)	(-156,2)	(264,27)	(330,2)	(0,12)	(39,3)	(4,10)	(-91,1)	(260,2)	(221,1)	(169,2)	(390,1)	
L1D -327>	(-10,19)	(324,1)	(2,7)	(-65,1)	(208,1)	(4,5)	(329,1)	(247,1)	(182,2)	(186,2)	(169,1)	(442,1)	(195,2)	(338,1)	(17,1)	(143,1)	
L1D -326>	(2,93)	(9,2)	(368,1)	(326,13)	(-2,8)	(328,2)	(221,1)	(-3,1)	(4,0)	(84,0)	(264,0)	(324,0)	(1,0)	(1,0)	(1,0)	(1,0)	
L1D -325>	(0,111)	(364,48)	(234,37)	(-26,40)	(13,57)	(325,126)	(247,66)	(39,43)	(91,40)	(299,115)	(312,83)	(208,43)	(286,1)	(65,91)	(104,89)	(52,49)	
L1D -324>	(-3,83)	(2,18)	(-2,80)	(-48,46)	(326,5)	(84,13)	(324,42)	(0,8)	(82,2)	(-124,11)	(244,6)	(-92,9)	(322,6)	(368,4)	(-50,1)	(11,2)	
L1D -323>	(-124,4)	(-2,1)	(-48,9)	(84,6)	(219,1)	(52,1)	(2,2)	(13,4)	(10,1)	(5,1)	(11,2)	(3,2)	(8,4)	(9,2)	(414,1)	(1,0)	
L1D -322>	(-2,21)	(324,8)	(8,91)	(-13,1)	(14,3)	(13,1)	(9,2)	(322,1)	(320,1)	(65,1)	(299,1)	(18,1)	(169,1)	(1,0)	(1,0)	(1,0)	
L1D -321>	(-124,1)	(-3,7)	(282,1)	(217,1)	(126,1)	(14,1)	(-5,3)	(320,1)	(10,1)	(3,1)	(9,1)	(0,4)	(-39,2)	(91,1)	(52,1)	(1,0)	
L1D -320>	(260,1)	(273,1)	(-5,3)	(11,1)	(7,1)	(-1,1)	(-156,1)	(9,1)	(117,1)	(1,0)	(1,0)	(1,0)	(1,0)	(1,0)	(1,0)	(1,0)	
L1D -319>	(0,9)	(321,1)	(11,1)	(-3,1)	(9,1)	(130,1)	(1,0)	(1,0)	(1,0)	(1,0)	(1,0)	(1,0)	(1,0)	(1,0)	(1,0)	(1,0)	
L1D -318>	(0,2)	(10,1)	(13,1)	(11,2)	(-39,1)	(-8,1)	(1,0)	(1,0)	(1,0)	(1,0)	(1,0)	(1,0)	(1,0)	(1,0)	(1,0)	(1,0)	
L1D -317>	(317,2)	(-26,1)	(-4,1)	(78,1)	(-8,3)	(286,1)	(57,1)	(1,0)	(1,0)	(1,0)	(1,0)	(1,0)	(1,0)	(1,0)	(1,0)	(1,0)	
L1D -316>	(0,2)	(429,2)	(2,25)	(4,60)	(26,3)	(299,1)	(117,3)	(238,1)	(273,1)	(39,3)	(13,1)	(286,1)	(364,1)	(65,1)	(-39,1)	(156,1)	
L1D -315>	(338,4)	(0,8)	(-169,2)	(39,8)	(-65,1)	(315,1)	(16,1)	(-23,1)	(364,11)	(312,1)	(-8,2)	(117,2)	(4,20)	(2,6)	(-167,1)	(-52,2)	
L1D -314>	(0,1)	(-10,29)	(2,21)	(-1,1)	(-6,1)	(-91,1)	(234,1)	(39,1)	(-130,1)	(1,0)	(1,0)	(1,0)	(1,0)	(1,0)	(1,0)	(1,0)	
L1D -313>	(2,1)	(-4,2)	(-6,1)	(-5,1)	(18,1)	(-3,1)	(104,1)	(9,1)	(1,0)	(1,0)	(1,0)	(1,0)	(1,0)	(1,0)	(1,0)	(1,0)	
L1D -312>	(78,49)	(442,23)	(234,38)	(26,56)	(-26,20)	(208,34)	(0,88)	(-39,1)	(-65,25)	(13,36)	(156,61)	(286,53)	(-13,67)	(91,53)	(247,57)	(221,41)	
L1D -311>	(2,5)	(9,4)	(-8,5)	(256,1)	(1,1)	(234,1)	(312,1)	(10,1)	(-169,1)	(1,0)	(1,0)	(1,0)	(1,0)	(1,0)	(1,0)	(1,0)	
L1D -310>	(2,60)	(-156,1)	(321,1)	(139,1)	(0,5)	(4,1)	(310,2)	(9,1)	(54,1)	(403,1)	(1,0)	(1,0)	(1,0)	(1,0)	(1,0)	(1,0)	
L1D -309>	(8,16)	(0,3)	(-2,5)	(13,1)	(258,1)	(-133,1)	(9,3)	(-3,1)	(299,2)	(-195,1)	(234,3)	(364,1)	(91,3)	(78,5)	(307,5)	(156,1)	
L1D -308>	(-3,19)	(2,7)	(-2,27)	(256,1)	(312,2)	(258,3)	(87,1)	(308,3)	(0,2)	(-39,2)	(306,1)	(310,2)	(9,1)	(6,1)	(1,0)	(1,0)	
L1D -307>	(260,9)	(273,1)	(138,1)	(0,5)	(8,2)	(52,1)	(-52,1)	(-3,1)	(-130,1)	(18,1)	(308,1)	(-72,1)	(1,0)	(1,0)	(1,0)	(1,0)	
L1D -306>	(403,1)	(325,1)	(-117,1)	(9,2)	(-2,7)	(8,4)	(91,1)	(1,0)	(1,0)	(1,0)	(1,0)	(1,0)	(1,0)	(1,0)	(1,0)	(1,0)	
L1D -305>	(260,2)	(308,1)	(-8,2)	(-12,1)	(130,1)	(13,1)	(-143,1)	(286,1)	(-182,1)	(9,1)	(1,0)	(1,0)	(1,0)	(1,0)	(1,0)	(1,0)	
L1D -304>	(-8,12)	(-10,7)	(9,2)	(-3,1)	(1,0)	(1,0)	(1,0)	(1,0)	(1,0)	(1,0)	(1,0)	(1,0)	(1,0)	(1,0)	(1,0)	(1,0)	
L1D -303>	(4,66)	(2,47)	(0,2)	(52,3)	(9,1)	(260,1)	(221,1)	(-39,2)	(169,2)	(377,1)	(-26,1)	(91,1)	(156,1)	(-74,1)	(-13,2)	(-52,1)	
L1D -302>	(65,1)	(-104,1)	(0,6)	(-26,38)	(273,2)	(221,3)	(-91,1)	(325,5)	(-8,1)	(4,18)	(2,5)	(39,1)	(-78,2)	(-65,2)	(208,1)	(13,2)	
L1D -301>	(-10,16)	(0,8)	(-156,1)	(182,1)	(4,9)	(234,1)	(455,1)	(-9,1)	(364,1)	(195,2)	(2,1)	(325,1)	(9,1)	(18,1)	(-90,1)	(-169,1)	
L1D -300>	(26,1)	(-104,1)	(0,2)	(-2,1)	(2,1)	(9,2)	(-195,1)	(-1,1)	(117,1)	(1,0)	(1,0)	(1,0)	(1,0)	(1,0)	(1,0)	(1,0)	
L1D -299>	(247,27)	(299,92)	(195,20)	(91,29)	(-13,27)	(208,37)	(0,57)	(130,22)	(351,24)	(260,22)	(143,63)	(65,61)	(-104,16)	(442,1)	(234,30)	(312,39)	
L1D -298>	(0,3)	(-2,1)	(-8,8)	(2,1)	(-117,1)	(-169,1)	(9,2)	(10,4)	(1,0)	(1,0)	(1,0)	(1,0)	(1,0)	(1,0)	(1,0)	(1,0)	
L1D -297>	(388,1)	(169,1)	(8,1)	(2,1)	(-156,1)	(299,1)	(260,1)	(156,1)	(429,1)	(403,2)	(0,1)	(-13,1)	(442,1)	(-143,1)	(9,1)	(312,1)	
L1D -296>	(8,12)	(286,1)	(364,1)	(9,1)	(273,1)	(-52,1)	(65,1)	(294,1)	(-3,1)	(-182,1)	(1,0)	(1,0)	(1,0)	(1,0)	(1,0)	(1,0)	
L1D -295>	(0,1)	(178,1)	(-134,1)	(256,1)	(26,1)	(2,5)	(-69,1)	(-39,3)	(9,1)	(78,1)	(1,0)	(1,0)	(1,0)	(1,0)	(1,0)	(1,0)	
L1D -294>	(2,61)	(8,11)	(273,1)	(377,1)	(294,8)	(-2,1)	(52,1)	(372,1)	(-208,1)	(7,1)	(221,1)	(132,1)	(1,0)	(1,0)	(1,0)	(1,0)	
L1D -293>	(-2,2)	(2,1)	(117,1)	(-156,1)	(8,1)	(-71,1)	(1,0)	(1,0)	(1,0)	(1,0)	(1,0)	(1,0)	(1,0)	(1,0)	(1,0)	(1,0)	
L1D -292>	(-2,25)	(372,14)	(2,5)	(-3,20)	(-130,1)	(0,5)	(292,10)	(48,2)	(46,2)	(-126,1)	(294,2)	(-117,1)	(9,1)	(130,1)	(1,0)	(1,0)	
L1D -291>	(-8,19)	(132,12)	(9,1)	(1,0)	(1,0)	(1,0)	(1,0)	(1,0)	(1,0)	(1,0)	(1,0)	(1,0)	(1,0)	(1,0)	(1,0)	(1,0)	
L1D -290>	(2,90)	(325,1)	(412,10)	(-2,9)	(0,3)	(4,70)	(264,1)	(-156,1)	(208,1)	(-26,1)	(221,1)	(182,1)	(468,1)	(273,2)	(195,1)	(-91,1)	
L1D -289>	(4,15)	(2,8)	(104,10)	(195,34)	(-117,6)	(0,8)	(-3,2)	(468,19)	(-52,8)	(130,4)	(65,1)	(351,1)	(13,1)	(-78,1)	(39,2)	(52,2)	
L1D -288>	(2,20)	(-2,24)	(290,14)	(288,2)	(280,6)	(-10,14)	(412,4)	(195,1)	(-8,1)	(91,1)	(426,3)	(428,4)	(0,2)	(4,6)	(130,2)	(37,1)	
L1D -287>	(412,1)	(260,1)	(-221,1)	(9,1)	(-195,1)	(1,0)	(1,0)	(1,0)	(1,0)	(1,0)	(1,0)	(1,0)	(1,0)	(1,0)	(1,0)	(1,0)	
L1D -286>	(234,35)	(325,35)	(91,44)	(0,123)	(208,106)	(312,26)	(26,60)	(247,71)	(-39,57)	(39,1)	(-78,34)	(377,13)	(390,9)	(78,68)	(52,48)	(221,38)	
L1D -285>	(-8,4)	(-3,10)	(-10,5)	(9,19)	(10,3)	(-108,2)	(3,1)	(-69,1)	(412,2)	(-30,1)	(297,1)	(1,0)	(1,0)	(1,0)	(1,0)	(1,0)	
L1D -284>	(195,1)	(169,1)	(2,2)	(191,1)	(61,1)	(349,1)	(39,1)	(115,1)	(0,1)	(9,1)	(-26,1)	(1,0)	(1,0)	(1,0)	(1,0)	(1,0)	
L1D -283>	(8,21)	(-2,1)	(-13,1)	(0,11)	(-90,1)	(90,1)	(78,1)	(-45,1)	(-182,1)	(1,0)	(1,0)	(1,0)	(1,0)	(1,0)	(1,0)	(1,0)	
L1D -282>	(0,6)	(412,4)	(2,16)	(280,3)	(217,2)	(-121,1)	(295,1)	(281,1)	(256,1)	(126,2)	(9,1)	(6,1)	(78,1)	(39,1)	(1,0)	(1,0)	
L1D -281>	(-65,1)	(8,10)	(273,1)	(377,1)	(234,1)	(143,2)	(52,1)	(39,1)	(221,1)	(1,0)	(1,0)	(1,0)	(1,0)	(1,0)	(1,0)	(1,0)	
L1D -280>	(282,4)	(412,16)	(-2,9)	(-9,1)	(-71,1)	(426,5)	(0,4)	(-3,26)	(293,1)	(2,17)	(1,0)	(1,0)	(1,0)	(1,0)	(1,0)	(1,0)	
L1D -279>	(-8,5)	(2,4)	(412,4)	(-2,1)	(-117,1)	(1,0)	(1,0)	(1,0)	(1,0)	(1,0)	(1,0)	(1,0)	(1,0)	(1,0)	(1,0)	(1,0)	
L1D -278>	(2,105)	(-8,19)	(9,1)	(-2,5)	(228,3)	(-221,1)	(276,1)	(280,2)	(278,8)	(426,0)	(3,1)	(169,0)	(221,0)	(416,1)	(0,1)	(410,0)	
L1D -277>	(412,3)	(-2,7)	(-3,9)	(4,70)	(303,1)	(247,1)	(325,1)	(2,33)	(-100,1)	(351,2)	(286,2)	(-13,1)	(143,1)	(377,2)	(-154,2)	(39,1)	
L1D -276>	(-32,35)	(143,1)	(2,18)	(4,14)	(325,4)	(-169,2)	(-3,51)	(276,21)	(-2,45)	(299,2)	(338,2)	(228,13)	(221,2)	(-8,8)	(0,13)	(364,2)	
L1D -275>	(4,14)	(-10,27)	(3,5)	(8,5)	(-1,1)	(14,1)	(2,15)	(0,10)	(405,1)	(-39,2)	(-32,4)	(45,1)	(486,1)	(9,1)	(-13,1)	(-8,1)	
L1D -274>	(-2,10)	(274,2)	(3,3)	(7,2)	(8,5)	(14,1)	(0,5)	(275,1)	(18,1)	(-65,1)	(276,1)	(1,0)	(1,0)	(1,0)	(1,0)	(1,0)	
L1D -273>	(91,54)	(0,107)	(273,99)	(143,67)	(351,23)	(78,30)	(286,42)	(-26,77)	(312,33)	(-130,1)	(117,46)	(325,48)	(65,29)	(364,23)	(338,42)	(52,40)	
L1D -272>	(0,8)	(2,3)	(370,4)	(372,4)	(10,3)	(113,1)	(-30,1)	(490,5)	(3,1)	(11,1)	(492,1)	(130,6)	(7,1)	(143,1)	(132,5)	(208,1)	
L1D -271>	(13,2)	(247,1)	(271,1)	(11,1)	(0,4)	(165,1)	(243,4)	(334,1)	(117,2)	(78,1)	(10,1)	(3,1)	(-3,1)	(7,1)	(234,1)	(-45,1)	
L1D -270>	(13,2)	(8,20)	(490,2)	(-2,2)	(0,6)	(180,2)	(10,3)	(-182,1)	(272,4)	(42,1)	(130,1)	(9,2)	(117,1)	(221,1)	(46,1)	(156,1)	
L1D -269>	(0,2)	(270,3)	(217,1)	(-106,2)	(-17,1)	(3,3)	(-46,1)	(10,1)	(11,3)	(8,1)	(46,1)	(-221,1)	(1,0)	(1,0)	(1,0)	(1,0)	
L1D -268>	(273,1)	(8,2)	(269,4)	(268,4)	(52,1)	(11,1)	(272,1)	(9,2)	(3,1)	(14,1)	(39,1)	(221,1)	(1,0)	(1,0)	(1,0)	(1,0)	
L1D -267>	(3,3)	(8,8)	(267,3)	(42,2)	(266,1)	(265,1)	(10,1)	(2,1)	(-5,1)	(11,1)	(-208,1)	(14,1)	(268,1)	(1,0)	(1,0)	(1,0)	
L1D -266>	(2,70)	(-195,0)	(143,0)	(-8,0)	(328,1)	(8,3)	(265,1)	(266,0)	(3,3)	(-5,0)	(271,0)	(14,2)	(19,0)	(11,0)	(10,0)	(264,1)	
L1D -265>	(7,1)	(416,1)	(-8,5)	(0,8)	(8,5)	(264,1)	(14,2)	(260,1)	(10,1)	(262,1)	(266,2)	(13,2)	(9,1)	(3,2)	(-5,1)	(274,1)	
L1D -264>	(-3,19)	(2,77)	(-2,37)	(299,3)	(264,23)	(9,1)	(266,25)	(263,4)	(328,46)	(4,86)	(326,6)	(13,2)	(0,7)	(65,2)	(3,3)	(262,6)	
L1D -263>	(264,4)	(0,7)	(-8,9)	(2,6)	(130,1)	(104,3)	(4,20)	(364,4)	(-156,7)	(328,6)	(14,4)	(156,3)	(182,2)	(-26,2)	(117,3)	(13,2)	
L1D -262>	(2,76)	(-2,14)	(264,11)	(11,6)	(262,8)	(-10,35)	(0,16)	(247,4)	(9,3)	(486,1)	(4,4)	(134,1)	(-234,1)	(-65,2)	(299,2)	(429,1)	
L1D -261>	(264,4)	(-3,59)	(-2,1)	(11,1)	(328,8)	(14,2)	(262,2)	(258,1)	(266,1)	(259,1)	(261,8)	(2,2)	(0,12)	(4,2)	(9,1)	(260,1)	
L1D -260>	(260,1)	(-104,40)	(65,44)	(-78,25)	(169,24)	(78,38)	(234,64)	(-39,39)	(143,34)	(-91,47)	(117,33)	(299,52)	(-52,32)	(13,38)	(-130,9)	(39,65)	
L1D -259>	(9,3)	(117,1)	(308,23)	(-8,5)	(10,3)	(2,1)	(87,1)	(-1,1)	(-2,1)	(258,1)	(-5,2)	(-13,4)	(257,2)	(265,1)	(259,2)	(18,1)	
L1D -258>	(260,2)	(362,1)	(-2,5)	(130,1)	(65,1)	(128,1)	(373,1)	(360,1)	(483,1)	(-5,3)	(-1,1)	(-8,4)	(-13,5)	(9,1)	(257,2)	(13,3)	
L1D -257>	(8,13)	(0,1)	(-13,2)	(-3,1)	(-52,1)	(256,1)	(-5,1)	(-8,4)	(255,2)	(265,1)	(262,1)	(257,2)	(18,2)	(42,1)	(308,3)	(104,1)	
L1D -256>	(0,8)	(282,1)	(269,1)	(347,1)	(35,1)	(-134,1)	(-1,1)	(-69,1)	(-5,1)	(-8,7)	(257,1)	(-13,1)	(9,1)	(52,1)	(-39,2)	(26,1)	
L1D -255>	(143,2)	(221,1)	(390,1)	(8,5)	(52,1)	(257,3)	(255,29)	(264,3)	(263,4)	(260,5)	(262,3)	(266,1)	(265,2)	(261,1)	(-8,3)	(258,1)	
L1D -254>	(-8,5)	(0,2)	(-13,2)	(104,1)	(-169,1)	(9,1)	(1,0)	(1,0)	(1,0)	(1,0)	(1,0)	(1,0)	(1,0)	(1,0)	(1,0)	(1,0)	
L1D -253>	(0,4)	(143,1)	(-130,1)	(-8,3)	(18,1)	(195,1)	(9,2)	(253,1)	(208,1)	(-12,1)	(234,1)	(1,0)	(1,0)	(1,0)	(1,0)	(1,0)	
L1D -252>	(-12,0)	(-8,9)	(-10,2)	(158,0)	(-13,0)	(-117,0)	(9,0)	(-91,0)	(2,68)	(252,0)	(38,1)	(1,0)	(1,0)	(1,0)	(1,0)	(1,0)	
L1D -251>	(0,4)	(4,102)	(-13,1)	(-8,2)	(2,26)	(134,1)	(-52,2)	(273,1)	(208,1)	(-143,1)	(52,1)	(-91,1)	(39,2)	(195,2)	(65,2)	(299,1)	
L1D -250>	(182,1)	(117,3)	(78,4)	(250,6)	(-52,2)	(34,4)	(156,2)	(143,3)	(-117,2)	(4,25)	(2,6)	(104,5)	(208,2)	(364,2)	(0,21)	(273,2)	
L1D -249>	(-10,61)	(-8,2)	(0,5)	(36,3)	(9,4)	(4,6)	(486,1)	(2,3)	(338,1)	(-65,2)	(156,2)	(-169,2)	(221,2)	(260,1)	(52,1)	(26,1)	
L1D -248>	(4,2)	(2,2)	(-8,1)	(226,1)	(-182,1)	(-26,1)	(-130,1)	(0,1)	(1,0)	(1,0)	(1,0)	(1,0)	(1,0)	(1,0)	(1,0)	(1,0)	
L1D -247>	(195,99)	(52,75)	(-78,30)	(299,109)	(312,1)	(117,57)	(65,46)	(403,13)	(-91,64)	(247,84)	(234,81)	(377,32)	(156,33)	(91,85)	(-208,14)	(-13,79)	
L1D -246>	(2,65)	(-8,10)	(-3,0)	(246,4)	(10,0)	(244,0)	(9,0)	(324,0)	(1,0)	(1,0)	(1,0)	(1,0)	(1,0)	(1,0)	(1,0)	(1,0)	
L1D -245>	(91,1)	(-2,9)	(2,2)	(-91,1)	(295,1)	(-186,1)	(52,1)	(390,1)	(269,1)	(160,1)	(104,1)	(0,1)	(-78,1)	(37,1)	(-13,1)	(494,1)	
L1D -244>	(-3,87)	(2,10)	(246,6)	(244,22)	(-2,41)	(96,21)	(140,3)	(8,8)	(0,7)	(158,1)	(-48,18)	(242,3)	(160,8)	(84,2)	(243,4)	(9,0)	
L1D -243>	(244,10)	(0,36)	(299,1)	(96,21)	(2,5)	(87,1)	(-1,2)	(152,1)	(-56,1)	(243,31)	(1,3)	(160,35)	(-48,2)	(-39,1)	(252,1)	(1,0)	
L1D -242>	(2,69)	(221,1)	(240,3)	(244,5)	(-2,19)	(-132,1)	(8,5)	(242,5)	(390,0)	(3,3)	(52,0)	(0,1)	(-84,2)	(-82,0)	(-1,0)	(322,0)	
L1D -241>	(244,1)	(0,2)	(-3,4)	(-86,1)	(-149,1)	(8,4)	(65,1)	(169,13)	(160,5)	(96,1)	(138,1)	(9,2)	(1,0)	(1,0)	(1,0)	(1,0)	
L1D -240>	(-2,14)	(0,22)	(-134,3)	(360,24)	(357,6)	(242,13)	(240,27)	(-3,6)	(358,9)	(2,12)	(239,6)	(238,4)	(-8,1)	(-84,12)	(9,2)	(-143,1)	
L1D -239>	(-8,54)	(31,1)	(-39,1)	(-10,6)	(299,1)	(360,3)	(-132,1)	(9,3)	(237,1)	(248,1)	(-47,1)	(1,0)	(1,0)	(1,0)	(1,0)	(1,0)	
L1D -238>	(0,11)	(240,21)	(-2,3)	(78,3)	(4,82)	(52,3)	(104,3)	(2,32)	(91,1)	(39,2)	(208,2)	(-52,1)	(-91,2)	(-39,2)	(117,1)	(143,3)	
L1D -237>	(-3,3)	(0,5)	(2,9)	(4,4)	(-26,19)	(13,3)	(-10,5)	(-8,5)	(260,2)	(78,2)	(455,1)	(377,1)	(104,2)	(-48,1)	(-104,1)	(52,2)	
L1D -236>	(301,1)	(-10,32)	(4,32)	(-8,1)	(325,1)	(0,8)	(351,1)	(197,1)	(39,2)	(13,1)	(2,1)	(-169,1)	(195,1)	(-37,1)	(9,1)	(1,0)	
L1D -235>	(4,2)	(1,1)	(0,3)	(-78,1)	(1,0)	(1,0)	(1,0)	(1,0)	(1,0)	(1,0)	(1,0)	(1,0)	(1,0)	(1,0)	(1,0)	(1,0)	
L1D -234>	(234,121)	(-26,42)	(52,28)	(104,37)	(13,50)	(208,30)	(156,1)	(-143,8)	(325,27)	(-13,42)	(130,25)	(117,35)	(0,78)	(39,35)	(143,38)	(-91,20)	
L1D -233>	(-1,1)	(221,1)	(10,2)	(0,1)	(9,1)	(1,0)	(1,0)	(1,0)	(1,0)	(1,0)	(1,0)	(1,0)	(1,0)	(1,0)	(1,0)	(1,0)	
L1D -232>	(117,1)	(388,2)	(-134,2)	(2,1)	(375,1)	(8,8)	(-260,1)	(0,1)	(1,0)	(1,0)	(1,0)	(1,0)	(1,0)	(1,0)	(1,0)	(1,0)	
L1D -231>	(5,1)	(8,32)	(-247,1)	(4,2)	(9,3)	(2,5)	(-234,1)	(-26,1)	(-52,2)	(13,1)	(104,1)	(156,1)	(221,1)	(1,0)	(1,0)	(1,0)	
L1D -230>	(2,62)	(230,3)	(0,3)	(278,1)	(87,1)	(-160,1)	(-134,1)	(3,3)	(-234,1)	(9,1)	(239,1)	(91,1)	(74,2)	(-39,1)	(234,1)	(26,1)	
L1D -229>	(273,1)	(8,42)	(416,1)	(0,6)	(-169,1)	(-3,1)	(-221,1)	(-32,5)	(-18,1)	(13,1)	(-2,2)	(44,1)	(221,2)	(26,1)	(18,1)	(1,0)	
L1D -228>	(230,5)	(276,14)	(274,5)	(-2,26)	(-34,1)	(278,1)	(-3,17)	(-32,2)	(228,3)	(226,3)	(0,2)	(46,1)	(33,1)	(2,3)	(-78,1)	(8,4)	
L1D -227>	(13,1)	(0,1)	(3,1)	(-34,1)	(-32,12)	(-221,1)	(1,0)	(1,0)	(1,0)	(1,0)	(1,0)	(1,0)	(1,0)	(1,0)	(1,0)	(1,0)	
L1D -226>	(228,11)	(-2,3)	(-8,11)	(-45,2)	(0,2)	(-143,1)	(-221,1)	(226,1)	(57,1)	(233,1)	(143,1)	(1,0)	(1,0)	(1,0)	(1,0)	(1,0)	
L1D -225>	(-3,7)	(-169,1)	(286,2)	(-1,3)	(1,1)	(2,51)	(4,67)	(143,2)	(56,1)	(273,1)	(130,3)	(325,2)	(52,1)	(260,3)	(26,1)	(182,1)	
L1D -224>	(4,14)	(52,2)	(2,15)	(-8,7)	(65,2)	(-52,3)	(39,2)	(-195,2)	(-91,3)	(416,1)	(-221,2)	(26,1)	(0,4)	(351,1)	(195,1)	(78,3)	
L1D -223>	(-10,38)	(486,2)	(4,7)	(-39,1)	(52,1)	(13,2)	(3,1)	(-78,1)	(104,2)	(91,1)	(260,1)	(403,3)	(481,2)	(-26,3)	(247,1)	(208,2)	
L1D -222>	(1,2)	(2,86)	(-3,1)	(-130,1)	(196,1)	(195,1)	(1,0)	(1,0)	(1,0)	(1,0)	(1,0)	(1,0)	(1,0)	(1,0)	(1,0)	(1,0)	
L1D -221>	(260,33)	(13,25)	(-39,27)	(0,126)	(273,25)	(-91,1)	(-26,42)	(130,72)	(221,66)	(-78,24)	(286,27)	(312,36)	(39,28)	(325,31)	(143,50)	(91,71)	
L1D -220>	(100,4)	(-2,24)	(2,15)	(0,23)	(196,12)	(222,4)	(-172,6)	(-3,3)	(-272,1)	(221,1)	(386,1)	(52,2)	(-10,3)	(11,1)	(220,9)	(98,6)	
L1D -219>	(-182,1)	(11,1)	(219,2)	(196,9)	(4,2)	(505,1)	(-56,1)	(312,1)	(-172,4)	(208,1)	(-273,1)	(-195,1)	(0,2)	(50,1)	(130,1)	(9,2)	
L1D -218>	(218,2)	(0,6)	(8,31)	(19,4)	(-2,7)	(6,2)	(-65,1)	(152,1)	(220,10)	(-234,1)	(-260,1)	(182,2)	(98,1)	(104,1)	(-143,1)	(13,2)	
L1D -217>	(3,7)	(8,9)	(-72,1)	(19,1)	(0,6)	(196,13)	(-95,1)	(48,1)	(218,1)	(87,1)	(217,8)	(220,1)	(-172,3)	(195,2)	(61,1)	(-91,1)	
L1D -216>	(8,3)	(6,2)	(42,2)	(11,3)	(7,7)	(221,1)	(273,1)	(220,1)	(216,11)	(390,1)	(217,3)	(234,1)	(-169,1)	(60,1)	(2,76)	(3,16)	
L1D -215>	(215,2)	(7,4)	(42,3)	(8,4)	(11,1)	(3,3)	(6,1)	(-1,1)	(49,1)	(9,1)	(1,0)	(1,0)	(1,0)	(1,0)	(1,0)	(1,0)	
L1D -214>	(19,3)	(7,5)	(5,2)	(-2,10)	(6,2)	(13,3)	(10,5)	(215,4)	(11,5)	(214,11)	(4,2)	(220,2)	(46,6)	(212,1)	(8,3)	(-8,2)	
L1D -213>	(8,6)	(0,8)	(5,4)	(-36,33)	(-3,19)	(212,6)	(-60,1)	(4,3)	(-10,2)	(-8,62)	(214,3)	(11,2)	(46,4)	(213,8)	(7,4)	(3,4)	
L1D -212>	(216,2)	(0,3)	(10,10)	(3,6)	(19,2)	(220,2)	(213,3)	(211,4)	(8,2)	(91,3)	(11,7)	(13,1)	(4,111)	(-65,1)	(2,40)	(407,1)	
L1D -211>	(-104,3)	(10,8)	(4,22)	(2,4)	(3,6)	(234,4)	(211,6)	(312,2)	(-10,4)	(210,5)	(221,2)	(42,3)	(46,1)	(212,5)	(11,3)	(0,8)	
L1D -210>	(220,2)	(10,10)	(210,5)	(2,41)	(0,2)	(184,2)	(201,4)	(211,8)	(-10,19)	(19,3)	(4,1)	(6,1)	(212,1)	(3,9)	(46,4)	(-76,1)	
L1D -209>	(201,5)	(14,10)	(-4,12)	(208,19)	(207,1)	(10,1)	(209,20)	(1,2)	(-1,1)	(7,3)	(3,8)	(210,4)	(8,11)	(4,3)	(11,9)	(479,1)	
L1D -208>	(91,34)	(-26,1)	(-13,39)	(403,16)	(-52,39)	(0,106)	(65,22)	(182,30)	(221,42)	(-117,16)	(208,85)	(-39,28)	(-65,50)	(104,52)	(195,40)	(13,51)	
L1D -207>	(-4,26)	(14,8)	(1,4)	(207,20)	(-8,4)	(9,2)	(42,2)	(206,9)	(8,14)	(11,4)	(3,20)	(203,2)	(205,4)	(7,3)	(-1,2)	(10,13)	
L1D -206>	(-4,6)	(10,14)	(207,8)	(14,5)	(1,4)	(206,21)	(8,10)	(-10,5)	(3,17)	(205,11)	(209,2)	(11,8)	(-13,2)	(7,1)	(87,1)	(100,1)	
L1D -205>	(-4,31)	(205,21)	(1,4)	(5,11)	(8,38)	(203,1)	(10,5)	(197,4)	(209,4)	(204,13)	(3,9)	(-260,1)	(14,6)	(0,4)	(206,1)	(42,5)	
L1D -204>	(10,16)	(-4,2)	(205,5)	(1,5)	(3,4)	(197,4)	(5,11)	(203,10)	(14,5)	(0,3)	(11,3)	(7,2)	(9,2)	(-143,1)	(-43,1)	(113,1)	
L1D -203>	(-4,42)	(197,4)	(206,2)	(205,4)	(203,33)	(0,2)	(202,11)	(1,2)	(221,1)	(209,3)	(273,1)	(10,6)	(390,1)	(8,5)	(14,6)	(-260,1)	
L1D -202>	(10,45)	(0,6)	(201,15)	(203,2)	(199,1)	(11,26)	(197,9)	(202,3)	(209,1)	(205,1)	(-117,1)	(13,11)	(8,1)	(14,3)	(6,1)	(9,1)	
L1D -201>	(199,7)	(-4,38)	(201,28)	(207,4)	(197,5)	(200,8)	(-13,6)	(209,2)	(204,4)	(203,4)	(206,3)	(-6,3)	(205,2)	(9,2)	(-11,1)	(-8,18)	
L1D -200>	(199,8)	(-4,9)	(200,1)	(-12,1)	(0,5)	(-8,19)	(18,1)	(-169,1)	(-5,3)	(-6,6)	(201,3)	(197,1)	(-286,2)	(9,1)	(91,1)	(161,1)	
L1D -199>	(-4,58)	(205,4)	(204,4)	(199,25)	(4,80)	(2,33)	(-1,8)	(-13,11)	(198,9)	(0,12)	(206,4)	(-8,7)	(-6,5)	(-2,3)	(197,16)	(-5,1)	
L1D -198>	(2,115)	(4,15)	(197,9)	(-8,25)	(-13,9)	(-1,2)	(0,8)	(195,4)	(312,2)	(-52,3)	(-156,2)	(26,3)	(-6,11)	(273,3)	(196,2)	(-221,2)	
L1D -197>	(-4,21)	(205,4)	(204,6)	(197,103)	(0,4)	(-8,8)	(-13,3)	(200,2)	(4,4)	(207,4)	(203,6)	(206,4)	(-10,14)	(-5,8)	(202,11)	(208,3)	
L1D -196>	(220,3)	(198,93)	(-12,2)	(0,28)	(-2,36)	(223,1)	(2,19)	(-8,8)	(196,11)	(150,4)	(218,4)	(194,50)	(-273,1)	(46,2)	(-13,3)	(-172,11)	
L1D -195>	(0,102)	(117,1)	(-52,40)	(195,116)	(52,28)	(156,28)	(143,50)	(-221,10)	(-130,29)	(-78,17)	(-143,23)	(312,46)	(-13,31)	(-65,16)	(234,30)	(299,30)	
L1D -194>	(0,14)	(-18,5)	(46,2)	(196,14)	(-8,15)	(-2,10)	(-172,2)	(-13,2)	(9,1)	(150,1)	(-199,1)	(-1,2)	(-134,1)	(139,1)	(321,1)	(194,1)	
L1D -193>	(-8,10)	(-13,11)	(-1,7)	(-26,1)	(0,14)	(206,19)	(-18,6)	(169,1)	(-158,1)	(2,1)	(-247,1)	(-2,6)	(48,1)	(4,2)	(54,2)	(45,1)	
L1D -192>	(-18,4)	(-1,4)	(0,2)	(192,1)	(-8,3)	(-13,4)	(7,1)	(8,21)	(130,1)	(-2,3)	(-260,1)	(1,0)	(1,0)	(1,0)	(1,0)	(1,0)	
L1D -191>	(-1,8)	(0,9)	(-13,16)	(193,2)	(-8,19)	(61,3)	(13,1)	(-18,2)	(192,1)	(18,1)	(-12,1)	(113,1)	(282,1)	(269,1)	(-121,1)	(156,1)	
L1D -190>	(-1,4)	(52,1)	(0,8)	(-8,4)	(192,1)	(273,1)	(-2,2)	(390,1)	(234,1)	(-169,1)	(104,2)	(18,2)	(13,1)	(-171,1)	(-247,1)	(1,0)	
L1D -189>	(0,12)	(-13,31)	(190,2)	(-8,73)	(-1,7)	(191,1)	(-2,3)	(-12,2)	(189,5)	(-10,1)	(1,0)	(1,0)	(1,0)	(1,0)	(1,0)	(1,0)	
L1D -188>	(-2,3)	(-219,1)	(-8,1)	(9,1)	(0,1)	(1,0)	(1,0)	(1,0)	(1,0)	(1,0)	(1,0)	(1,0)	(1,0)	(1,0)	(1,0)	(1,0)	
L1D -187>	(18,1)	(20,1)	(-2,3)	(189,3)	(-10,3)	(-8,17)	(-20,1)	(135,1)	(70,1)	(9,3)	(-286,2)	(-260,1)	(1,0)	(1,0)	(1,0)	(1,0)	
L1D -186>	(-18,2)	(4,72)	(2,50)	(-208,2)	(260,1)	(273,2)	(143,1)	(65,1)	(-13,1)	(169,1)	(78,1)	(-178,1)	(52,1)	(-104,1)	(-26,5)	(-130,1)	
L1D -185>	(-2,5)	(4,19)	(13,3)	(2,20)	(-104,2)	(91,4)	(377,2)	(117,3)	(-10,4)	(39,1)	(104,2)	(403,1)	(-273,1)	(-117,1)	(364,2)	(-195,3)	
L1D -184>	(-10,22)	(41,1)	(0,7)	(4,16)	(-182,2)	(78,1)	(351,2)	(-234,1)	(169,3)	(156,3)	(-208,2)	(-13,4)	(-117,4)	(364,1)	(338,1)	(212,1)	
L1D -183>	(184,3)	(-2,2)	(9,2)	(20,2)	(185,2)	(2,4)	(4,1)	(27,1)	(-3,1)	(1,0)	(1,0)	(1,0)	(1,0)	(1,0)	(1,0)	(1,0)	
L1D -182>	(0,107)	(-39,34)	(78,39)	(52,42)	(130,1)	(377,25)	(195,41)	(26,71)	(-26,51)	(104,29)	(286,34)	(-78,39)	(-130,15)	(117,32)	(-208,14)	(-13,41)	
L1D -181>	(-20,1)	(183,1)	(-2,2)	(-8,3)	(10,4)	(0,4)	(464,1)	(-43,1)	(360,1)	(282,1)	(364,1)	(9,2)	(1,0)	(1,0)	(1,0)	(1,0)	
L1D -180>	(386,1)	(-238,1)	(24,1)	(26,1)	(180,7)	(0,3)	(78,1)	(-117,1)	(-104,1)	(-78,1)	(39,1)	(91,1)	(-13,1)	(338,1)	(52,1)	(1,0)	
L1D -179>	(8,40)	(-2,1)	(7,2)	(-273,1)	(-182,1)	(-52,2)	(9,1)	(78,1)	(1,0)	(1,0)	(1,0)	(1,0)	(1,0)	(1,0)	(1,0)	(1,0)	
L1D -178>	(22,1)	(-1,1)	(490,1)	(9,1)	(-173,1)	(130,1)	(18,1)	(143,1)	(0,1)	(1,0)	(1,0)	(1,0)	(1,0)	(1,0)	(1,0)	(1,0)	
L1D -177>	(-117,1)	(234,2)	(-169,1)	(13,1)	(178,1)	(-65,1)	(156,1)	(9,2)	(0,1)	(-247,1)	(1,0)	(1,0)	(1,0)	(1,0)	(1,0)	(1,0)	
L1D -176>	(-3,1)	(9,2)	(202,1)	(-91,1)	(1,0)	(1,0)	(1,0)	(1,0)	(1,0)	(1,0)	(1,0)	(1,0)	(1,0)	(1,0)	(1,0)	(1,0)	
L1D -175>	(1,2)	(117,1)	(351,1)	(325,1)	(312,1)	(0,3)	(9,1)	(-34,2)	(-8,1)	(2,2)	(1,0)	(1,0)	(1,0)	(1,0)	(1,0)	(1,0)	
L1D -174>	(-52,1)	(1,2)	(-8,16)	(-10,5)	(-34,1)	(2,66)	(8,1)	(143,1)	(408,1)	(368,4)	(-286,2)	(174,4)	(392,1)	(1,0)	(1,0)	(1,0)	
L1D -173>	(0,3)	(-2,2)	(-312,1)	(-39,1)	(-91,3)	(4,104)	(-143,1)	(117,1)	(-219,1)	(134,1)	(13,2)	(2,40)	(221,1)	(208,1)	(65,1)	(104,2)	
L1D -172>	(182,3)	(4,17)	(2,9)	(0,21)	(117,10)	(-39,2)	(-2,19)	(392,42)	(39,3)	(-3,41)	(273,5)	(91,2)	(-26,1)	(299,2)	(416,1)	(221,1)	
L1D -171>	(-39,2)	(-10,40)	(-3,1)	(442,1)	(170,1)	(2,19)	(221,1)	(4,17)	(416,1)	(104,1)	(-143,1)	(-8,1)	(0,8)	(171,9)	(-21,1)	(9,1)	
L1D -170>	(1,2)	(-1,1)	(4,3)	(2,3)	(-2,2)	(9,2)	(-26,2)	(368,1)	(1,0)	(1,0)	(1,0)	(1,0)	(1,0)	(1,0)	(1,0)	(1,0)	
L1D -169>	(39,32)	(247,34)	(-39,1)	(169,80)	(273,22)	(65,50)	(299,19)	(-156,23)	(0,60)	(416,14)	(-143,15)	(-182,16)	(156,47)	(-260,6)	(-195,22)	(-52,21)	
L1D -168>	(-10,1)	(1,2)	(399,1)	(191,1)	(204,1)	(-1,1)	(178,1)	(-48,3)	(-34,1)	(-21,1)	(39,1)	(2,1)	(9,4)	(10,2)	(-26,2)	(1,0)	
L1D -167>	(-41,1)	(-39,2)	(174,1)	(1,4)	(-2,1)	(8,7)	(4,1)	(388,1)	(9,1)	(169,1)	(386,1)	(24,1)	(113,1)	(13,1)	(-21,1)	(377,1)	
L1D -166>	(8,113)	(1,3)	(0,9)	(9,2)	(4,1)	(-90,1)	(117,1)	(-273,1)	(-2,1)	(1,0)	(1,0)	(1,0)	(1,0)	(1,0)	(1,0)	(1,0)	
L1D -165>	(164,1)	(172,1)	(1,1)	(0,4)	(-39,1)	(295,1)	(178,2)	(26,1)	(-134,1)	(-21,1)	(-199,1)	(325,1)	(117,1)	(13,1)	(1,0)	(1,0)	
L1D -164>	(8,21)	(-117,1)	(1,2)	(247,1)	(-130,1)	(-169,1)	(0,1)	(-3,1)	(-247,1)	(1,0)	(1,0)	(1,0)	(1,0)	(1,0)	(1,0)	(1,0)	
L1D -163>	(171,1)	(-39,2)	(1,1)	(8,3)	(-84,1)	(2,1)	(9,2)	(0,2)	(-21,4)	(-13,1)	(1,0)	(1,0)	(1,0)	(1,0)	(1,0)	(1,0)	
L1D -162>	(11,9)	(2,121)	(-84,1)	(19,2)	(162,5)	(160,1)	(338,1)	(-312,1)	(1,0)	(1,0)	(1,0)	(1,0)	(1,0)	(1,0)	(1,0)	(1,0)	
L1D -161>	(-10,8)	(-1,1)	(-8,25)	(28,1)	(161,2)	(11,15)	(6,1)	(236,5)	(19,1)	(162,4)	(54,1)	(-104,1)	(9,2)	(-286,2)	(1,0)	(1,0)	
L1D -160>	(-2,62)	(0,18)	(9,3)	(158,7)	(2,56)	(-3,12)	(19,3)	(11,15)	(162,18)	(160,13)	(117,2)	(-84,9)	(244,3)	(4,113)	(242,3)	(325,2)	
L1D -159>	(4,31)	(2,6)	(0,12)	(-52,2)	(143,5)	(156,6)	(-91,3)	(117,9)	(162,1)	(-104,1)	(-10,4)	(130,6)	(91,13)	(-78,3)	(11,20)	(-247,2)	
L1D -158>	(-2,15)	(0,14)	(-10,60)	(11,16)	(3,16)	(42,19)	(160,7)	(6,1)	(161,2)	(338,1)	(327,1)	(21,5)	(182,1)	(4,11)	(65,1)	(-65,2)	
L1D -157>	(-45,1)	(3,18)	(11,13)	(159,1)	(0,8)	(42,9)	(158,5)	(-56,1)	(-84,1)	(244,4)	(-3,2)	(-208,1)	(9,1)	(6,1)	(-108,1)	(41,1)	
L1D -156>	(-78,16)	(-13,32)	(0,87)	(78,47)	(260,19)	(221,26)	(351,1)	(130,27)	(65,49)	(26,33)	(156,100)	(117,38)	(104,47)	(39,44)	(208,36)	(13,40)	
L1D -155>	(22,2)	(11,9)	(162,3)	(-1,5)	(10,35)	(156,6)	(9,1)	(2,22)	(196,2)	(-8,1)	(42,7)	(155,11)	(157,2)	(-46,3)	(6,1)	(3,7)	
L1D -154>	(0,8)	(2,41)	(19,3)	(312,1)	(8,6)	(-234,1)	(42,10)	(156,2)	(3,6)	(196,4)	(10,25)	(154,10)	(155,5)	(13,1)	(11,9)	(-9,1)	
L1D -153>	(154,5)	(-2,4)	(8,31)	(196,3)	(3,8)	(10,29)	(-46,3)	(0,5)	(153,11)	(11,5)	(42,4)	(19,3)	(6,1)	(157,1)	(156,1)	(2,2)	
L1D -152>	(196,56)	(0,11)	(-3,4)	(2,3)	(220,8)	(10,22)	(155,1)	(11,12)	(149,3)	(152,18)	(150,5)	(-173,3)	(153,6)	(42,6)	(-46,4)	(-172,29)	
L1D -151>	(-46,1)	(-4,127)	(3,0)	(8,9)	(0,0)	(9,0)	(10,1)	(-172,10)	(21,0)	(150,0)	(-13,0)	(2,0)	(42,0)	(151,1)	(14,3)	(-58,0)	
L1D -150>	(11,13)	(2,18)	(10,11)	(156,2)	(151,2)	(159,1)	(0,1)	(153,1)	(-4,112)	(149,1)	(19,2)	(150,2)	(14,2)	(154,1)	(152,1)	(158,1)	
L1D -149>	(-4,70)	(3,0)	(117,0)	(10,0)	(-13,0)	(42,1)	(149,0)	(14,1)	(150,0)	(147,0)	(-46,0)	(377,0)	(-2,0)	(9,0)	(1,0)	(1,0)	
L1D -148>	(-2,3)	(150,1)	(-286,0)	(9,0)	(2,1)	(-4,118)	(149,0)	(-8,1)	(11,0)	(10,3)	(-46,1)	(14,2)	(0,1)	(90,0)	(44,0)	(3,1)	
L1D -147>	(-4,86)	(208,1)	(-280,2)	(139,0)	(0,0)	(10,1)	(147,0)	(27,0)	(-3,0)	(4,1)	(2,1)	(-325,0)	(44,1)	(234,0)	(14,3)	(42,2)	
L1D -146>	(-4,101)	(52,1)	(-2,3)	(364,9)	(182,1)	(148,1)	(4,5)	(14,1)	(-91,2)	(2,10)	(153,1)	(-234,1)	(139,1)	(0,14)	(10,9)	(147,2)	
L1D -145>	(486,1)	(-4,110)	(-195,3)	(-48,1)	(-10,3)	(2,1)	(14,2)	(-26,0)	(143,0)	(104,0)	(-169,0)	(273,0)	(-143,0)	(4,0)	(145,1)	(114,0)	
L1D -144>	(-4,112)	(10,35)	(11,2)	(14,2)	(-325,1)	(26,1)	(124,1)	(116,1)	(18,1)	(260,0)	(0,2)	(1,0)	(1,0)	(1,0)	(1,0)	(1,0)	
L1D -143>	(156,50)	(208,26)	(247,35)	(364,14)	(-156,20)	(260,25)	(91,45)	(117,48)	(273,15)	(0,102)	(143,65)	(13,30)	(130,1)	(-13,47)	(-4,65)	(234,33)	
L1D -142>	(2,25)	(140,0)	(-288,0)	(14,0)	(-8,10)	(-13,11)	(-1,22)	(0,3)	(142,2)	(334,0)	(-4,91)	(260,1)	(10,1)	(144,0)	(141,0)	(9,1)	
L1D -141>	(0,2)	(14,2)	(-4,81)	(-1,17)	(-8,4)	(-12,0)	(8,2)	(-13,12)	(-182,0)	(-2,0)	(-108,0)	(-147,0)	(4,1)	(26,0)	(273,0)	(141,0)	
L1D -140>	(2,16)	(-2,53)	(124,25)	(142,18)	(26,1)	(0,23)	(-3,49)	(-290,5)	(138,6)	(-1,50)	(122,4)	(140,19)	(-8,36)	(8,74)	(-4,25)	(-13,42)	
L1D -139>	(-4,69)	(130,1)	(0,0)	(-8,2)	(-13,0)	(52,0)	(124,0)	(113,0)	(347,0)	(-69,0)	(230,0)	(308,0)	(152,0)	(126,0)	(-43,0)	(14,0)	
L1D -138>	(140,21)	(-2,7)	(124,3)	(126,2)	(-8,19)	(8,4)	(-1,25)	(-13,20)	(234,2)	(0,8)	(130,1)	(169,1)	(104,2)	(138,11)	(2,116)	(-10,1)	
L1D -137>	(96,2)	(-3,8)	(0,10)	(-8,25)	(-1,37)	(8,1)	(-13,32)	(131,1)	(139,1)	(359,1)	(-133,1)	(137,3)	(9,2)	(1,0)	(1,0)	(1,0)	
L1D -136>	(133,18)	(-8,27)	(-1,41)	(-13,30)	(2,3)	(136,47)	(0,21)	(-10,3)	(124,53)	(121,3)	(-2,14)	(123,14)	(122,2)	(125,1)	(18,1)	(9,3)	
L1D -135>	(-8,74)	(-13,21)	(-1,21)	(2,6)	(0,15)	(19,1)	(135,1)	(-10,4)	(9,2)	(150,1)	(356,1)	(213,1)	(124,9)	(-286,2)	(374,1)	(1,0)	
L1D -134>	(2,113)	(-78,1)	(-1,25)	(-8,6)	(134,2)	(132,1)	(455,1)	(-13,9)	(130,0)	(0,1)	(19,0)	(4,14)	(-325,0)	(221,0)	(338,0)	(-52,0)	
L1D -133>	(-104,9)	(273,5)	(143,6)	(4,36)	(0,54)	(2,8)	(91,4)	(130,1)	(-130,2)	(-1,22)	(-13,27)	(-143,6)	(-156,18)	(-8,19)	(-182,4)	(148,2)	
L1D -132>	(490,5)	(134,8)	(132,58)	(0,24)	(-2,77)	(-3,40)	(130,18)	(292,4)	(-10,48)	(2,27)	(-1,14)	(-8,8)	(270,5)	(148,19)	(4,39)	(370,1)	
L1D -131>	(-1,73)	(-13,51)	(0,8)	(372,2)	(148,3)	(131,3)	(-8,24)	(-18,0)	(4,1)	(132,0)	(-10,0)	(-2,0)	(8,1)	(-3,0)	(292,0)	(1,0)	
L1D -130>	(117,59)	(221,45)	(182,38)	(-143,17)	(0,104)	(286,1)	(208,17)	(52,66)	(13,66)	(-104,24)	(104,64)	(91,69)	(325,35)	(130,100)	(-65,80)	(-26,57)	
L1D -129>	(131,9)	(2,3)	(-3,7)	(-1,5)	(9,4)	(372,3)	(-20,2)	(18,1)	(20,1)	(347,1)	(269,1)	(-160,1)	(1,1)	(-10,3)	(132,1)	(129,10)	
L1D -128>	(0,2)	(232,1)	(299,1)	(2,4)	(-41,1)	(129,2)	(256,1)	(-1,2)	(35,1)	(191,1)	(193,1)	(39,2)	(26,2)	(-104,1)	(128,1)	(-145,2)	
L1D -127>	(8,32)	(-273,1)	(-45,1)	(-18,1)	(-26,1)	(9,2)	(-286,1)	(-325,1)	(2,1)	(0,4)	(65,1)	(128,1)	(19,1)	(1,0)	(1,0)	(1,0)	
L1D -126>	(2,68)	(52,1)	(171,0)	(-72,0)	(448,0)	(9,0)	(136,1)	(243,0)	(124,1)	(464,0)	(126,2)	(0,2)	(18,0)	(117,0)	(81,0)	(1,0)	
L1D -125>	(-18,5)	(221,1)	(127,1)	(8,17)	(-156,1)	(-169,1)	(9,3)	(126,1)	(26,1)	(-213,1)	(0,1)	(-299,1)	(-2,1)	(1,0)	(1,0)	(1,0)	
L1D -124>	(-2,93)	(0,50)	(76,21)	(122,41)	(124,64)	(126,84)	(2,63)	(-8,50)	(-3,62)	(-26,6)	(-72,6)	(448,7)	(-288,4)	(136,3)	(116,4)	(134,5)	
L1D -123>	(0,1)	(-2,1)	(-78,8)	(-20,2)	(124,8)	(76,1)	(-8,2)	(-72,2)	(144,2)	(-100,1)	(2,4)	(-370,1)	(1,0)	(1,0)	(1,0)	(1,0)	
L1D -122>	(2,89)	(-2,18)	(124,50)	(122,13)	(-240,8)	(0,25)	(-8,24)	(-370,5)	(137,1)	(448,1)	(-98,1)	(116,1)	(134,3)	(-21,1)	(76,1)	(144,1)	
L1D -121>	(-3,12)	(76,12)	(121,9)	(124,8)	(123,5)	(-26,1)	(2,66)	(-91,2)	(-1,3)	(0,11)	(13,1)	(4,95)	(108,1)	(104,2)	(78,2)	(39,1)	
L1D -120>	(-240,33)	(-243,3)	(4,25)	(0,22)	(2,26)	(-100,29)	(-102,7)	(117,4)	(-234,2)	(118,6)	(-372,10)	(-39,11)	(-26,2)	(234,1)	(-221,8)	(-13,2)	
L1D -119>	(-10,44)	(-65,2)	(-37,1)	(208,1)	(221,1)	(117,1)	(325,3)	(104,1)	(4,9)	(65,2)	(121,3)	(193,1)	(130,2)	(13,3)	(-13,2)	(2,1)	
L1D -118>	(-2,2)	(2,125)	(0,6)	(3,1)	(144,2)	(120,1)	(4,2)	(-325,1)	(-45,1)	(-372,2)	(116,1)	(-90,1)	(90,1)	(1,0)	(1,0)	(1,0)	
L1D -117>	(-26,1)	(0,93)	(130,53)	(156,48)	(325,17)	(91,50)	(-286,13)	(143,49)	(351,5)	(-260,8)	(117,121)	(-91,31)	(-195,22)	(-13,32)	(-143,19)	(182,33)	
L1D -116>	(-10,77)	(-8,9)	(-2,12)	(10,7)	(-34,11)	(0,15)	(116,16)	(144,32)	(2,42)	(-21,6)	(124,57)	(118,4)	(-1,2)	(9,1)	(-95,2)	(-30,1)	
L1D -115>	(0,2)	(-340,2)	(8,5)	(-21,4)	(144,8)	(124,6)	(-34,9)	(-221,2)	(-30,1)	(-43,1)	(180,1)	(4,2)	(286,1)	(-45,1)	(26,1)	(13,2)	
L1D -114>	(8,50)	(478,1)	(-234,1)	(-21,6)	(-2,9)	(-34,11)	(116,12)	(-45,1)	(0,7)	(-325,1)	(78,1)	(-91,1)	(65,1)	(9,1)	(18,1)	(1,0)	
L1D -113>	(-1,1)	(-34,11)	(-39,1)	(-21,4)	(144,12)	(321,1)	(308,1)	(152,1)	(124,34)	(143,3)	(115,2)	(113,5)	(141,1)	(121,10)	(234,1)	(-3,2)	
L1D -112>	(-2,1)	(8,23)	(0,7)	(-143,1)	(-169,1)	(-34,8)	(-21,3)	(-90,1)	(-45,1)	(-104,1)	(351,1)	(52,2)	(-26,1)	(1,0)	(1,0)	(1,0)	
L1D -111>	(7,7)	(-1,1)	(8,1)	(-34,8)	(-21,6)	(-221,1)	(112,1)	(9,2)	(-156,1)	(91,1)	(-45,1)	(1,0)	(1,0)	(1,0)	(1,0)	(1,0)	
L1D -110>	(1,1)	(-34,8)	(-21,5)	(-8,1)	(9,2)	(0,1)	(1,0)	(1,0)	(1,0)	(1,0)	(1,0)	(1,0)	(1,0)	(1,0)	(1,0)	(1,0)	
L1D -109>	(-8,110)	(-34,1)	(317,0)	(247,1)	(-169,0)	(-45,0)	(54,0)	(-10,1)	(90,0)	(0,3)	(-286,0)	(-21,3)	(1,0)	(1,0)	(1,0)	(1,0)	
L1D -108>	(0,9)	(-34,6)	(-21,1)	(108,6)	(4,75)	(351,1)	(-78,3)	(-65,1)	(2,30)	(130,1)	(390,1)	(-9,3)	(117,3)	(-18,6)	(27,1)	(-39,1)	
L1D -107>	(52,4)	(4,37)	(2,7)	(-10,72)	(-104,2)	(156,1)	(-182,1)	(169,3)	(260,3)	(143,3)	(107,1)	(364,2)	(234,1)	(11,1)	(-273,1)	(0,7)	
L1D -106>	(2,94)	(0,2)	(486,1)	(-10,16)	(-39,0)	(106,1)	(312,0)	(418,1)	(26,0)	(-273,0)	(-91,0)	(104,1)	(-1,1)	(9,0)	(-117,0)	(-8,0)	
L1D -105>	(-21,5)	(4,1)	(-142,2)	(-46,1)	(0,1)	(9,1)	(1,0)	(1,0)	(1,0)	(1,0)	(1,0)	(1,0)	(1,0)	(1,0)	(1,0)	(1,0)	
L1D -104>	(-286,1)	(221,53)	(104,100)	(0,101)	(195,30)	(-52,31)	(26,32)	(91,67)	(182,17)	(156,25)	(325,24)	(208,41)	(130,35)	(-91,28)	(117,40)	(-130,17)	
L1D -103>	(-8,2)	(2,4)	(-10,1)	(103,1)	(-117,1)	(35,1)	(425,1)	(-140,1)	(45,1)	(0,6)	(18,1)	(-221,1)	(10,1)	(1,0)	(1,0)	(1,0)	
L1D -102>	(130,1)	(104,11)	(0,15)	(26,1)	(2,61)	(-158,1)	(178,1)	(191,1)	(102,3)	(13,2)	(-195,1)	(5,1)	(52,1)	(-90,1)	(-140,1)	(-13,1)	
L1D -101>	(8,71)	(218,1)	(-234,1)	(-2,5)	(2,1)	(104,1)	(-91,1)	(101,2)	(5,23)	(11,8)	(-26,1)	(19,1)	(52,1)	(-143,1)	(78,1)	(0,1)	
L1D -100>	(98,6)	(0,12)	(100,14)	(-3,41)	(220,28)	(5,16)	(-272,3)	(52,1)	(139,1)	(178,1)	(282,1)	(217,1)	(74,1)	(-69,1)	(-142,1)	(-2,12)	
L1D -99>	(11,2)	(247,1)	(8,11)	(99,30)	(-143,1)	(-169,1)	(5,1)	(0,8)	(234,1)	(-3,1)	(220,9)	(98,4)	(100,1)	(-338,1)	(18,1)	(-239,1)	
L1D -98>	(2,100)	(99,1)	(96,3)	(5,11)	(10,11)	(97,4)	(98,4)	(0,1)	(100,2)	(8,15)	(-2,1)	(7,1)	(9,2)	(-65,1)	(18,1)	(1,0)	
L1D -97>	(98,1)	(13,1)	(5,5)	(10,3)	(96,1)	(-8,2)	(0,1)	(220,2)	(4,2)	(6,1)	(106,1)	(9,2)	(1,0)	(1,0)	(1,0)	(1,0)	
L1D -96>	(2,21)	(-2,39)	(104,2)	(-10,3)	(-8,55)	(-3,3)	(244,4)	(140,7)	(98,10)	(96,4)	(95,5)	(-286,1)	(5,5)	(10,3)	(457,1)	(-1,3)	
L1D -95>	(-1,6)	(4,124)	(2,57)	(5,9)	(-195,2)	(0,9)	(95,4)	(-5,6)	(130,4)	(10,2)	(-208,4)	(-260,1)	(-104,4)	(273,1)	(-117,4)	(264,1)	
L1D -94>	(260,1)	(5,10)	(-1,5)	(4,33)	(-2,22)	(2,28)	(156,7)	(0,18)	(96,13)	(234,9)	(299,4)	(91,4)	(-26,3)	(94,7)	(-10,4)	(-8,39)	
L1D -93>	(-4,15)	(-10,48)	(65,2)	(0,7)	(-3,9)	(-195,2)	(5,8)	(-6,21)	(10,4)	(92,6)	(-50,1)	(-5,12)	(13,3)	(94,8)	(-39,2)	(4,31)	
L1D -92>	(11,90)	(-6,4)	(104,1)	(98,1)	(19,9)	(102,1)	(0,2)	(96,0)	(2,0)	(94,0)	(44,1)	(42,0)	(5,1)	(-5,3)	(-2,2)	(97,1)	
L1D -91>	(-78,25)	(-247,15)	(117,40)	(156,32)	(26,27)	(39,23)	(52,36)	(-195,10)	(91,62)	(0,72)	(195,32)	(325,1)	(130,38)	(286,16)	(-65,18)	(273,23)	
L1D -90>	(-4,19)	(9,8)	(2,3)	(14,28)	(36,4)	(92,5)	(13,1)	(-6,21)	(90,34)	(0,31)	(-5,5)	(10,7)	(-8,5)	(89,5)	(5,2)	(-1,3)	
L1D -89>	(14,55)	(-4,8)	(0,3)	(-5,13)	(-6,21)	(89,8)	(5,9)	(41,2)	(4,4)	(8,2)	(88,2)	(9,2)	(325,1)	(-1,4)	(-173,1)	(-171,1)	
L1D -88>	(14,20)	(-261,2)	(8,32)	(-4,6)	(-11,1)	(3,57)	(88,4)	(10,5)	(-6,21)	(13,1)	(-5,10)	(-55,18)	(87,1)	(5,7)	(89,1)	(-26,1)	
L1D -87>	(-4,14)	(2,14)	(5,8)	(-5,12)	(-6,19)	(87,3)	(52,1)	(85,3)	(-11,1)	(451,1)	(61,2)	(-43,1)	(-121,1)	(-381,1)	(-56,1)	(0,1)	
L1D -86>	(10,66)	(-4,27)	(2,87)	(8,3)	(11,4)	(85,15)	(5,8)	(86,3)	(-5,4)	(84,3)	(18,1)	(-317,1)	(-48,1)	(-160,11)	(1,0)	(1,0)	
L1D -85>	(-4,48)	(83,2)	(-6,19)	(84,2)	(-5,10)	(87,1)	(-11,2)	(85,1)	(0,4)	(-8,1)	(332,1)	(-2,3)	(-338,1)	(-45,1)	(96,1)	(86,1)	
L1D -84>	(-4,37)	(2,14)	(-3,24)	(-2,61)	(86,21)	(-5,10)	(-6,21)	(242,7)	(-48,6)	(0,8)	(82,7)	(84,17)	(-162,2)	(324,8)	(322,6)	(244,8)	
L1D -83>	(-273,1)	(265,1)	(2,17)	(-4,59)	(-10,7)	(-8,50)	(0,2)	(-6,20)	(-5,11)	(80,2)	(-117,1)	(18,1)	(-99,1)	(-299,1)	(-11,2)	(-286,1)	
L1D -82>	(2,117)	(85,51)	(84,6)	(-221,1)	(-2,12)	(-4,12)	(82,2)	(83,1)	(-5,3)	(-6,13)	(403,1)	(182,1)	(-162,1)	(4,29)	(0,5)	(-26,0)	
L1D -81>	(-4,73)	(-156,0)	(-208,0)	(52,1)	(91,0)	(-2,0)	(73,0)	(0,0)	(1,0)	(1,0)	(1,0)	(1,0)	(1,0)	(1,0)	(1,0)	(1,0)	
L1D -80>	(78,6)	(0,73)	(80,67)	(-3,8)	(-2,31)	(-10,69)	(2,23)	(4,14)	(77,24)	(-246,3)	(13,2)	(-244,14)	(-104,3)	(-1,1)	(182,4)	(143,1)	
L1D -79>	(80,30)	(2,22)	(0,25)	(-160,1)	(9,2)	(-244,18)	(-117,1)	(1,0)	(1,0)	(1,0)	(1,0)	(1,0)	(1,0)	(1,0)	(1,0)	(1,0)	
L1D -78>	(143,37)	(-91,50)	(286,1)	(208,39)	(-39,49)	(-13,51)	(377,22)	(0,91)	(26,45)	(117,37)	(65,56)	(52,69)	(13,57)	(2,14)	(91,37)	(-260,17)	
L1D -77>	(-3,1)	(-8,4)	(-1,3)	(2,1)	(217,1)	(-2,5)	(76,1)	(80,2)	(0,4)	(-10,2)	(9,1)	(10,2)	(-244,2)	(-364,1)	(1,0)	(1,0)	
L1D -76>	(-2,39)	(0,35)	(78,31)	(2,26)	(-3,44)	(122,3)	(74,13)	(32,3)	(124,1)	(448,33)	(-221,1)	(4,4)	(-130,1)	(113,1)	(22,1)	(76,27)	
L1D -75>	(-78,1)	(73,1)	(8,83)	(0,5)	(-390,1)	(-13,1)	(72,3)	(2,3)	(-39,1)	(-273,0)	(76,11)	(448,4)	(91,0)	(-2,2)	(7,0)	(4,0)	
L1D -74>	(74,13)	(-2,19)	(0,6)	(76,119)	(2,102)	(65,1)	(9,3)	(126,1)	(-1,3)	(-43,1)	(-156,1)	(-82,1)	(18,1)	(26,1)	(30,1)	(72,5)	
L1D -73>	(-8,101)	(-13,41)	(-1,3)	(447,1)	(123,1)	(0,2)	(75,2)	(448,12)	(76,1)	(73,1)	(445,3)	(1,0)	(1,0)	(1,0)	(1,0)	(1,0)	
L1D -72>	(-2,51)	(8,2)	(0,41)	(49,2)	(194,1)	(48,18)	(2,13)	(72,42)	(-1,1)	(-221,1)	(169,1)	(45,2)	(69,1)	(74,121)	(46,44)	(70,34)	
L1D -71>	(338,2)	(-8,2)	(48,1)	(72,4)	(76,3)	(0,1)	(9,1)	(-1,2)	(27,1)	(2,2)	(1,1)	(1,0)	(1,0)	(1,0)	(1,0)	(1,0)	
L1D -70>	(68,14)	(2,79)	(434,1)	(70,3)	(-10,2)	(-8,10)	(0,4)	(-152,0)	(72,19)	(-117,0)	(76,0)	(-208,0)	(432,0)	(-21,0)	(1,0)	(1,0)	
L1D -69>	(26,1)	(-104,2)	(2,27)	(4,79)	(-143,1)	(-65,2)	(52,1)	(-52,1)	(117,1)	(13,1)	(143,1)	(91,1)	(377,1)	(325,1)	(234,3)	(195,1)	
L1D -68>	(70,74)	(42,8)	(0,44)	(44,8)	(-2,73)	(66,12)	(68,20)	(2,34)	(-154,9)	(-152,77)	(4,30)	(52,7)	(286,4)	(-143,1)	(-39,3)	(-3,17)	
L1D -67>	(-10,53)	(2,15)	(0,16)	(432,1)	(325,1)	(-9,1)	(-108,1)	(4,21)	(37,1)	(130,2)	(-208,1)	(-169,1)	(-312,1)	(-104,1)	(-18,1)	(-76,1)	
L1D -66>	(68,121)	(-2,19)	(0,13)	(-12,10)	(42,1)	(66,6)	(2,51)	(-264,4)	(-151,2)	(-324,2)	(3,4)	(-156,1)	(-260,0)	(1,0)	(1,0)	(1,0)	
L1D -65>	(-65,18)	(26,36)	(117,30)	(-52,32)	(416,7)	(-143,20)	(39,36)	(-78,20)	(52,44)	(0,80)	(65,36)	(195,19)	(-182,24)	(13,37)	(-26,23)	(-221,1)	
L1D -64>	(2,46)	(10,5)	(9,6)	(-3,39)	(0,6)	(-2,22)	(-72,1)	(39,1)	(321,1)	(360,1)	(-1,1)	(-8,2)	(64,8)	(-264,30)	(-266,11)	(66,3)	
L1D -63>	(0,6)	(-340,16)	(8,4)	(4,3)	(-264,18)	(-145,4)	(87,2)	(9,3)	(141,2)	(286,1)	(1,2)	(2,1)	(45,4)	(-108,1)	(-45,2)	(63,2)	
L1D -62>	(8,36)	(-416,1)	(2,3)	(-2,8)	(-26,1)	(-266,3)	(1,3)	(64,2)	(9,1)	(325,1)	(-325,1)	(-264,1)	(62,1)	(28,1)	(60,1)	(-3,1)	
L1D -61>	(-264,15)	(-39,1)	(64,1)	(-17,1)	(230,1)	(191,1)	(-52,1)	(48,1)	(-69,1)	(-1,1)	(-3,30)	(1,3)	(0,1)	(9,1)	(20,1)	(1,0)	
L1D -60>	(-156,1)	(-195,1)	(60,1)	(416,1)	(1,6)	(12,2)	(221,1)	(9,1)	(8,4)	(-364,1)	(-247,1)	(-260,1)	(0,1)	(1,0)	(1,0)	(1,0)	
L1D -59>	(11,3)	(0,1)	(1,6)	(9,2)	(1,0)	(1,0)	(1,0)	(1,0)	(1,0)	(1,0)	(1,0)	(1,0)	(1,0)	(1,0)	(1,0)	(1,0)	
L1D -58>	(201,28)	(-1,29)	(260,2)	(18,7)	(0,19)	(4,88)	(143,61)	(27,1)	(-7,22)	(259,8)	(1,5)	(11,5)	(9,2)	(20,1)	(213,1)	(12,3)	
L1D -57>	(65,2)	(-10,13)	(-8,45)	(-143,1)	(-117,1)	(-125,1)	(0,4)	(-234,1)	(1,10)	(-3,1)	(-299,1)	(10,2)	(-286,1)	(28,1)	(9,1)	(-273,1)	
L1D -56>	(-390,2)	(-208,4)	(1,5)	(325,2)	(10,5)	(2,52)	(4,121)	(364,1)	(65,2)	(-156,2)	(26,2)	(-130,1)	(78,3)	(182,2)	(-52,3)	(-247,1)	
L1D -55>	(-1,11)	(4,37)	(2,11)	(-104,3)	(-338,1)	(-13,5)	(1,4)	(130,2)	(-10,6)	(-325,2)	(91,2)	(0,8)	(78,2)	(377,3)	(117,2)	(143,20)	
L1D -54>	(-10,42)	(442,2)	(0,17)	(54,9)	(1,4)	(4,15)	(-36,2)	(9,6)	(104,1)	(56,6)	(-178,1)	(260,2)	(-78,1)	(182,4)	(-338,3)	(169,2)	
L1D -53>	(8,1)	(1,4)	(10,6)	(-403,1)	(1,0)	(1,0)	(1,0)	(1,0)	(1,0)	(1,0)	(1,0)	(1,0)	(1,0)	(1,0)	(1,0)	(1,0)	
L1D -52>	(39,31)	(195,23)	(-26,24)	(-39,19)	(-156,25)	(-13,24)	(-221,1)	(234,16)	(169,20)	(-182,19)	(-260,13)	(-78,14)	(286,10)	(0,61)	(91,26)	(52,67)	
L1D -51>	(1,9)	(2,6)	(10,3)	(-260,2)	(72,6)	(9,1)	(204,1)	(-238,1)	(-121,1)	(321,1)	(126,1)	(3,1)	(50,1)	(48,1)	(18,1)	(-10,1)	
L1D -50>	(338,1)	(2,111)	(1,4)	(8,3)	(50,4)	(72,14)	(48,1)	(-76,1)	(-54,1)	(191,0)	(295,0)	(13,0)	(230,0)	(-30,0)	(74,1)	(9,1)	
L1D -49>	(45,8)	(10,6)	(8,54)	(50,2)	(1,15)	(-325,1)	(-262,2)	(-2,2)	(-260,1)	(17,1)	(16,1)	(0,12)	(70,1)	(-36,1)	(49,1)	(9,4)	
L1D -48>	(46,3)	(2,7)	(7,76)	(-2,7)	(132,9)	(-44,2)	(50,2)	(72,32)	(45,3)	(49,3)	(-228,2)	(0,6)	(-3,8)	(-230,2)	(48,7)	(-1,1)	
L1D -47>	(9,3)	(1,8)	(8,39)	(-260,9)	(0,4)	(-76,5)	(72,21)	(132,1)	(7,1)	(46,1)	(372,1)	(45,16)	(221,1)	(-44,1)	(-52,1)	(5,1)	
L1D -46>	(48,3)	(8,1)	(2,36)	(19,0)	(-12,111)	(0,8)	(-3,0)	(-2,4)	(45,33)	(189,0)	(305,0)	(4,0)	(46,0)	(-46,0)	(1,0)	(1,0)	
L1D -45>	(11,14)	(1,17)	(3,1)	(-3,25)	(-27,1)	(0,90)	(-126,1)	(2,3)	(-8,1)	(132,1)	(45,16)	(9,1)	(-72,0)	(5,1)	(18,0)	(19,0)	
L1D -44>	(46,5)	(1,18)	(-2,41)	(2,36)	(148,2)	(42,4)	(-32,5)	(45,104)	(-8,14)	(68,2)	(-12,14)	(3,7)	(0,9)	(44,6)	(-152,6)	(-1,1)	
L1D -43>	(-208,2)	(2,77)	(0,13)	(-12,13)	(312,1)	(-299,3)	(4,125)	(78,1)	(26,1)	(-338,1)	(-52,2)	(-221,4)	(-273,1)	(-130,1)	(130,2)	(-13,3)	
L1D -42>	(4,41)	(130,2)	(2,7)	(-2,18)	(44,12)	(234,3)	(1,5)	(442,2)	(-13,2)	(50,3)	(-10,6)	(-260,6)	(-130,20)	(-299,3)	(0,18)	(-65,1)	
L1D -41>	(-102,1)	(-10,60)	(-3,3)	(1,2)	(-8,3)	(2,24)	(8,7)	(-195,3)	(0,3)	(40,3)	(-247,2)	(-153,4)	(78,3)	(4,7)	(-32,5)	(43,5)	
L1D -40>	(5,3)	(1,2)	(-1,49)	(0,12)	(8,1)	(6,2)	(-8,1)	(4,1)	(3,1)	(39,3)	(-5,1)	(20,1)	(19,1)	(13,1)	(1,0)	(1,0)	
L1D -39>	(130,44)	(13,58)	(-26,41)	(-39,35)	(78,56)	(26,44)	(208,20)	(52,53)	(0,98)	(-13,41)	(169,1)	(156,42)	(39,83)	(338,19)	(-52,22)	(-260,22)	
L1D -38>	(2,72)	(0,1)	(4,49)	(152,1)	(148,1)	(12,3)	(-7,9)	(-8,3)	(146,1)	(-1,8)	(252,1)	(9,1)	(61,0)	(230,0)	(139,0)	(-134,0)	
L1D -37>	(1,121)	(-340,4)	(0,7)	(180,3)	(37,3)	(8,37)	(-145,4)	(28,4)	(-130,1)	(36,1)	(-93,1)	(21,1)	(20,1)	(-223,1)	(9,1)	(206,1)	
L1D -36>	(36,68)	(2,19)	(0,20)	(250,3)	(-2,10)	(8,76)	(34,4)	(38,1)	(1,1)	(27,2)	(249,6)	(90,1)	(35,0)	(22,0)	(-9,1)	(-3,1)	
L1D -35>	(14,70)	(-1,7)	(3,1)	(-4,6)	(6,3)	(5,21)	(36,23)	(-39,2)	(0,10)	(2,4)	(-247,1)	(325,1)	(9,4)	(117,1)	(35,1)	(34,11)	
L1D -34>	(2,34)	(32,20)	(14,71)	(33,2)	(8,5)	(17,1)	(0,1)	(34,0)	(36,0)	(-17,1)	(3,0)	(-2,0)	(26,0)	(-247,0)	(28,0)	(9,0)	
L1D -33>	(-3,10)	(33,15)	(-17,4)	(36,7)	(0,24)	(247,1)	(-1,3)	(25,4)	(32,25)	(35,6)	(9,2)	(2,1)	(17,10)	(249,36)	(8,7)	(-2,1)	
L1D -32>	(1,123)	(-3,87)	(2,114)	(20,21)	(0,22)	(-2,94)	(34,28)	(30,17)	(8,1)	(16,9)	(448,14)	(28,30)	(31,28)	(32,36)	(26,8)	(308,16)	
L1D -31>	(0,13)	(-8,106)	(27,4)	(31,6)	(-117,1)	(-17,2)	(2,10)	(308,5)	(16,3)	(448,3)	(23,1)	(32,1)	(28,8)	(30,17)	(-247,1)	(-260,1)	
L1D -30>	(2,68)	(29,10)	(15,0)	(-2,11)	(18,0)	(208,0)	(-13,0)	(30,4)	(32,28)	(21,3)	(11,12)	(20,0)	(4,12)	(78,0)	(182,0)	(28,0)	
L1D -29>	(260,4)	(28,82)	(-13,5)	(2,6)	(4,35)	(-2,9)	(0,23)	(-3,81)	(29,12)	(-39,3)	(-8,62)	(10,7)	(39,1)	(32,3)	(-286,3)	(-52,4)	
L1D -28>	(28,35)	(-3,75)	(32,13)	(0,26)	(30,15)	(2,13)	(-2,51)	(1,3)	(-116,30)	(9,1)	(26,6)	(-10,55)	(19,6)	(14,4)	(27,41)	(4,23)	
L1D -27>	(1,2)	(26,89)	(0,46)	(-12,10)	(27,45)	(153,2)	(-18,2)	(32,16)	(14,3)	(-116,21)	(2,13)	(18,3)	(16,3)	(5,3)	(4,1)	(8,2)	
L1D -26>	(-143,41)	(273,1)	(-26,59)	(-13,106)	(91,63)	(0,121)	(130,36)	(104,40)	(208,46)	(52,68)	(299,37)	(234,31)	(-52,54)	(-104,83)	(39,80)	(-91,44)	
L1D -25>	(25,22)	(16,13)	(0,23)	(5,11)	(24,77)	(-3,11)	(2,21)	(1,23)	(32,4)	(26,5)	(3,16)	(18,3)	(-10,2)	(-20,1)	(9,6)	(17,12)	
L1D -24>	(-2,32)	(18,8)	(205,4)	(1,35)	(0,32)	(23,89)	(26,7)	(2,30)	(24,33)	(-1,8)	(-145,5)	(-196,5)	(42,1)	(16,10)	(-50,5)	(-48,44)	
L1D -23>	(-2,11)	(-18,1)	(22,27)	(42,118)	(-48,12)	(23,9)	(1,23)	(0,15)	(3,107)	(-403,1)	(17,3)	(8,11)	(88,12)	(-43,1)	(21,10)	(-1,4)	
L1D -22>	(4,2)	(41,1)	(22,3)	(-3,7)	(19,1)	(2,15)	(0,3)	(21,10)	(16,81)	(149,3)	(1,0)	(158,1)	(147,6)	(156,2)	(20,2)	(154,0)	
L1D -21>	(-18,67)	(0,3)	(169,1)	(-78,0)	(20,10)	(-6,10)	(12,7)	(4,0)	(21,3)	(18,1)	(-1,0)	(2,0)	(19,1)	(-234,0)	(1,0)	(30,0)	
L1D -20>	(1,17)	(11,19)	(22,83)	(19,107)	(-18,32)	(2,19)	(-2,85)	(32,32)	(-3,35)	(-46,5)	(18,53)	(-58,25)	(0,85)	(20,69)	(-126,1)	(10,12)	
L1D -19>	(-1,20)	(2,25)	(19,61)	(-2,7)	(0,100)	(18,123)	(1,23)	(10,1)	(-8,5)	(22,2)	(-124,2)	(17,4)	(27,3)	(25,11)	(23,5)	(9,15)	
L1D -18>	(20,15)	(-3,4)	(18,20)	(2,62)	(25,1)	(-8,11)	(-7,5)	(150,1)	(38,11)	(153,3)	(0,25)	(-2,10)	(9,23)	(12,59)	(17,29)	(4,92)	
L1D -17>	(0,10)	(16,8)	(-2,112)	(18,1)	(15,1)	(25,2)	(9,1)	(17,6)	(26,1)	(377,0)	(23,4)	(8,4)	(1,0)	(4,0)	(2,0)	(24,3)	
L1D -16>	(15,70)	(0,76)	(16,90)	(3,70)	(-3,16)	(4,105)	(-124,7)	(2,21)	(-1,23)	(-2,20)	(18,3)	(8,47)	(169,1)	(13,19)	(156,9)	(39,3)	
L1D -15>	(15,22)	(3,23)	(2,5)	(0,32)	(16,14)	(-11,26)	(14,45)	(18,18)	(19,1)	(7,89)	(1,7)	(-1,13)	(17,2)	(13,1)	(8,1)	(-10,38)	
L1D -14>	(13,97)	(-124,11)	(0,60)	(2,34)	(14,38)	(12,6)	(1,14)	(-5,2)	(11,1)	(7,3)	(-2,2)	(16,1)	(15,20)	(6,2)	(-1,20)	(-11,6)	
L1D -13>	(13,71)	(5,53)	(221,1)	(0,44)	(247,8)	(26,29)	(-52,16)	(91,12)	(-13,78)	(130,20)	(15,8)	(52,17)	(78,15)	(7,15)	(117,12)	(-117,19)	
L1D -12>	(7,24)	(12,25)	(-2,11)	(-7,33)	(-139,9)	(0,19)	(213,1)	(-1,125)	(1,7)	(4,13)	(3,3)	(21,12)	(11,40)	(-4,27)	(10,4)	(9,4)	
L1D -11>	(12,106)	(10,23)	(4,66)	(11,15)	(0,13)	(152,4)	(3,6)	(155,4)	(6,3)	(-1,5)	(1,3)	(149,5)	(-7,2)	(143,14)	(5,4)	(153,7)	
L1D -10>	(2,39)	(9,83)	(10,71)	(0,10)	(127,1)	(-4,6)	(361,2)	(231,3)	(-107,4)	(-29,3)	(-94,3)	(27,2)	(49,6)	(-484,3)	(12,1)	(153,3)	
L1D -9>	(-139,11)	(18,62)	(0,52)	(-12,14)	(7,10)	(8,75)	(9,22)	(-197,1)	(-7,5)	(6,18)	(-5,120)	(-3,16)	(-141,5)	(3,15)	(-81,9)	(1,8)	
L1D -8>	(-4,97)	(-31,10)	(127,3)	(-237,1)	(-289,8)	(-3,6)	(140,20)	(3,2)	(14,4)	(0,9)	(-81,7)	(8,32)	(153,4)	(62,6)	(-109,11)	(7,16)	
L1D -7>	(-4,4)	(5,20)	(125,1)	(3,16)	(19,28)	(0,27)	(11,120)	(16,12)	(8,21)	(7,13)	(6,46)	(1,3)	(-142,1)	(-39,9)	(-81,2)	(-139,6)	
L1D -6>	(-1,7)	(9,3)	(73,8)	(5,37)	(0,46)	(18,5)	(1,6)	(2,11)	(-7,10)	(203,1)	(95,1)	(-5,32)	(-12,14)	(6,112)	(97,1)	(4,4)	
L1D -5>	(6,33)	(14,52)	(2,12)	(47,1)	(-3,31)	(5,62)	(0,43)	(1,21)	(-139,6)	(3,4)	(10,92)	(4,38)	(11,20)	(-5,20)	(13,22)	(-8,11)	
L1D -4>	(85,22)	(12,14)	(4,109)	(-12,1)	(-325,1)	(152,2)	(155,0)	(-4,1)	(3,2)	(143,9)	(13,2)	(154,1)	(0,8)	(8,1)	(-1,12)	(-7,15)	
L1D -3>	(1,1)	(12,79)	(9,0)	(-18,0)	(2,6)	(-4,0)	(19,0)	(140,0)	(-364,0)	(328,0)	(32,0)	(8,0)	(4,0)	(-2,0)	(0,0)	(-433,0)	
L1D -2>	(324,2)	(412,2)	(2,113)	(8,2)	(6,1)	(326,1)	(392,2)	(394,1)	(-4,1)	(30,1)	(76,1)	(0,17)	(-370,1)	(25,3)	(11,53)	(3,4)	
L1D -1>	(-1,44)	(10,69)	(11,3)	(7,1)	(0,34)	(-11,28)	(2,11)	(-341,0)	(3,2)	(-154,0)	(-2,5)	(-27,0)	(-17,0)	(-3,2)	(-12,1)	(1,8)	
L1D 0>	(0,112)	(-104,3)	(65,4)	(130,4)	(-39,8)	(-26,6)	(-65,13)	(299,1)	(91,9)	(1,9)	(143,6)	(-13,4)	(78,5)	(-169,4)	(117,6)	(13,11)	
L1D 1>	(-208,1)	(1,99)	(18,1)	(4,1)	(-8,12)	(11,15)	(10,9)	(13,1)	(62,1)	(-221,1)	(-1,37)	(2,32)	(3,22)	(5,1)	(0,14)	(-2,7)	
L1D 2>	(2,21)	(1,18)	(8,5)	(-1,6)	(10,59)	(-76,2)	(-328,1)	(76,1)	(-2,87)	(-68,1)	(308,1)	(-244,1)	(-28,1)	(-6,1)	(0,32)	(-50,1)	
L1D 3>	(1,20)	(-4,86)	(330,1)	(-15,6)	(8,16)	(22,76)	(-3,40)	(2,18)	(-58,13)	(5,10)	(0,48)	(-1,17)	(-2,15)	(11,33)	(-46,42)	(-9,48)	
L1D 4>	(-446,1)	(-4,65)	(-1,7)	(9,1)	(204,1)	(299,1)	(-95,1)	(-30,1)	(-225,1)	(65,1)	(-312,1)	(130,1)	(59,2)	(14,4)	(124,1)	(228,1)	
L1D 5>	(-2,3)	(-17,90)	(-1,15)	(-5,46)	(0,3)	(-6,2)	(8,96)	(1,7)	(-8,3)	(-4,6)	(-3,6)	(5,3)	(4,4)	(-32,1)	(-11,6)	(6,33)	
L1D 6>	(-7,2)	(-11,9)	(-12,1)	(8,1)	(-6,123)	(1,1)	(-1,9)	(-23,2)	(10,17)	(-13,5)	(12,24)	(14,1)	(2,6)	(35,4)	(-5,42)	(-2,2)	
L1D 7>	(11,16)	(8,32)	(42,63)	(0,14)	(41,33)	(-7,77)	(-11,9)	(-8,52)	(-6,24)	(-1,16)	(1,18)	(195,1)	(-14,7)	(-4,14)	(7,9)	(13,7)	
L1D 8>	(10,6)	(0,119)	(-5,12)	(-1,56)	(-8,112)	(-37,1)	(-12,4)	(-7,5)	(-9,5)	(-16,5)	(6,1)	(-10,63)	(8,8)	(41,7)	(-91,2)	(39,3)	
L1D 9>	(6,0)	(18,0)	(-1,0)	(-10,0)	(8,0)	(-19,0)	(-8,0)	(-256,0)	(-9,0)	(-3,23)	(-445,0)	(-7,0)	(9,86)	(-116,0)	(-46,0)	(248,0)	
L1D 10>	(-2,2)	(-23,2)	(9,118)	(1,3)	(6,1)	(-1,17)	(5,12)	(8,1)	(-11,0)	(3,5)	(0,2)	(192,0)	(-3,25)	(-8,17)	(-6,7)	(-10,6)	
L1D 11>	(-13,3)	(10,2)	(-4,21)	(-25,0)	(-355,0)	(14,1)	(-11,6)	(-3,25)	(-2,0)	(35,1)	(2,1)	(-10,1)	(0,2)	(9,74)	(-1,2)	(-12,0)	
L1D 12>	(6,0)	(8,0)	(-1,1)	(-400,0)	(-11,0)	(0,0)	(-40,0)	(9,70)	(-13,0)	(-3,58)	(-12,0)	(-2,8)	(-136,0)	(-8,0)	(-9,0)	(4,0)	
L1D 13>	(-8,27)	(-182,11)	(-12,7)	(39,32)	(-13,71)	(-78,1)	(13,48)	(91,15)	(26,41)	(-312,18)	(65,35)	(195,13)	(0,63)	(-169,14)	(169,19)	(52,42)	
L1D 14>	(-22,70)	(-1,9)	(0,5)	(-6,21)	(-14,21)	(-18,22)	(2,22)	(-13,9)	(14,0)	(-29,2)	(-12,19)	(-2,1)	(-28,1)	(9,1)	(-15,2)	(-10,1)	
L1D 15>	(-15,89)	(-14,38)	(-2,24)	(-1,20)	(0,22)	(-10,66)	(-16,12)	(206,34)	(-136,9)	(-6,2)	(-12,4)	(-9,10)	(14,5)	(13,1)	(4,1)	(78,1)	
L1D 16>	(0,92)	(-15,16)	(-10,5)	(-16,53)	(-2,8)	(-140,2)	(-1,6)	(-19,3)	(9,4)	(-8,32)	(-17,5)	(8,9)	(11,2)	(-12,34)	(-18,1)	(12,1)	
L1D 17>	(7,7)	(-17,88)	(24,1)	(17,1)	(0,23)	(-13,1)	(8,5)	(-16,68)	(-1,11)	(-18,6)	(-8,12)	(1,7)	(3,3)	(11,1)	(-2,3)	(9,10)	
L1D 18>	(-18,27)	(-3,49)	(-21,8)	(2,31)	(-16,1)	(-30,9)	(-17,6)	(-1,7)	(0,14)	(130,1)	(10,0)	(-20,30)	(-2,1)	(-9,75)	(-19,3)	(9,39)	
L1D 19>	(-13,85)	(-1,71)	(-8,86)	(0,25)	(-2,2)	(-21,11)	(-19,60)	(-3,1)	(-20,4)	(7,1)	(9,7)	(18,4)	(131,2)	(-18,20)	(1,3)	(11,1)	
L1D 20>	(-18,14)	(10,3)	(1,2)	(20,1)	(-19,6)	(-28,12)	(-20,26)	(-146,2)	(-22,2)	(-34,67)	(0,9)	(-38,28)	(-26,34)	(-1,2)	(2,2)	(-45,13)	
L1D 21>	(-2,1)	(-18,4)	(-1,16)	(2,3)	(-30,8)	(0,2)	(-20,31)	(-8,54)	(193,1)	(-21,73)	(20,22)	(-3,108)	(9,36)	(-22,2)	(21,1)	(-39,1)	
L1D 22>	(-18,4)	(-21,2)	(135,3)	(20,127)	(-2,2)	(-20,57)	(137,1)	(2,7)	(0,4)	(-22,20)	(-72,15)	(4,1)	(-169,1)	(-1,4)	(134,3)	(132,1)	
L1D 23>	(-25,11)	(-23,100)	(-24,12)	(65,24)	(-22,21)	(-4,9)	(2,7)	(-2,3)	(-1,14)	(4,7)	(-39,12)	(-10,6)	(0,12)	(312,10)	(-28,5)	(1,1)	
L1D 24>	(1,51)	(-22,9)	(-68,42)	(0,23)	(-3,11)	(-24,120)	(-10,66)	(-23,33)	(-392,7)	(-1,24)	(-26,9)	(-74,2)	(-43,3)	(4,8)	(-2,17)	(2,5)	
L1D 25>	(-23,115)	(-25,20)	(19,2)	(-24,14)	(125,2)	(129,2)	(135,6)	(18,1)	(130,1)	(-22,9)	(-1,6)	(132,5)	(134,2)	(126,2)	(133,5)	(123,10)	
L1D 26>	(26,73)	(-26,89)	(13,92)	(65,30)	(39,74)	(104,28)	(-13,76)	(-104,40)	(-299,11)	(-273,19)	(-52,42)	(52,65)	(-156,28)	(182,12)	(273,1)	(0,79)	
L1D 27>	(-220,5)	(9,12)	(-27,124)	(-68,8)	(-26,32)	(-13,2)	(-3,36)	(-18,116)	(-9,2)	(-10,2)	(10,3)	(-1,22)	(0,7)	(3,5)	(156,1)	(-277,2)	
L1D 28>	(-2,41)	(-29,2)	(-28,120)	(2,67)	(0,39)	(-30,8)	(-3,9)	(-27,26)	(-26,21)	(9,4)	(-20,4)	(-1,17)	(78,1)	(4,54)	(-117,1)	(-144,1)	
L1D 29>	(0,3)	(-28,30)	(8,28)	(-29,72)	(-1,23)	(-2,2)	(9,4)	(4,2)	(-9,2)	(-30,1)	(2,1)	(-31,1)	(-55,1)	(1,0)	(1,0)	(1,0)	
L1D 30>	(-30,14)	(2,68)	(-2,2)	(0,7)	(-1,4)	(-28,13)	(-62,0)	(-29,3)	(9,4)	(-32,1)	(-225,0)	(-23,0)	(-18,2)	(-22,0)	(-78,0)	(-108,0)	
L1D 31>	(-31,44)	(-28,10)	(-52,1)	(234,1)	(7,2)	(-49,1)	(247,1)	(-30,18)	(-1,21)	(8,40)	(-143,1)	(-208,1)	(-14,2)	(4,25)	(1,14)	(3,7)	
L1D 32>	(-3,68)	(2,77)	(-2,126)	(-12,8)	(-30,58)	(-4,23)	(-32,70)	(-34,27)	(-1,16)	(7,1)	(44,2)	(0,10)	(-31,5)	(90,9)	(-33,3)	(-28,2)	
L1D 33>	(-4,9)	(-12,23)	(2,13)	(-156,1)	(-1,11)	(-32,7)	(-2,1)	(-8,2)	(-33,21)	(-34,1)	(0,10)	(8,1)	(1,0)	(1,0)	(1,0)	(1,0)	
L1D 34>	(2,79)	(-8,20)	(-2,29)	(-32,17)	(274,2)	(-117,1)	(-1,14)	(-411,1)	(148,1)	(90,2)	(-34,11)	(-33,2)	(-12,2)	(-4,2)	(-17,1)	(-39,1)	
L1D 35>	(-48,87)	(-36,1)	(-35,2)	(0,3)	(-3,11)	(-4,1)	(-12,1)	(-429,1)	(158,1)	(-1,5)	(9,0)	(13,0)	(4,24)	(2,6)	(377,0)	(-32,8)	
L1D 36>	(-2,36)	(-169,17)	(-48,70)	(4,35)	(-3,88)	(2,32)	(1,13)	(52,1)	(168,3)	(-45,4)	(338,4)	(54,2)	(0,38)	(-10,3)	(-8,6)	(-36,73)	
L1D 37>	(-36,24)	(-10,40)	(213,2)	(260,1)	(2,17)	(171,1)	(234,3)	(-104,1)	(4,21)	(-52,1)	(91,1)	(143,2)	(-65,1)	(0,4)	(-1,13)	(-37,3)	
L1D 38>	(1,70)	(-45,13)	(-34,35)	(-37,121)	(174,1)	(-2,8)	(107,1)	(-40,1)	(-38,5)	(442,2)	(1,0)	(1,0)	(1,0)	(1,0)	(1,0)	(1,0)	
L1D 39>	(-78,25)	(-260,17)	(52,40)	(26,54)	(169,22)	(39,40)	(13,74)	(-65,32)	(-26,60)	(-182,1)	(0,85)	(286,17)	(195,21)	(-52,46)	(-13,54)	(-39,67)	
L1D 40>	(2,4)	(-8,9)	(-297,2)	(-40,2)	(10,4)	(-24,1)	(61,1)	(48,1)	(87,1)	(-225,1)	(386,1)	(22,2)	(-355,1)	(-17,1)	(-484,2)	(-10,3)	
L1D 41>	(-41,1)	(1,82)	(-91,0)	(8,0)	(-21,4)	(-48,28)	(-24,1)	(-20,0)	(-416,0)	(234,0)	(2,0)	(4,0)	(117,0)	(139,0)	(100,0)	(74,0)	
L1D 42>	(2,26)	(1,97)	(8,23)	(3,1)	(-20,4)	(-325,1)	(-21,89)	(0,1)	(-140,1)	(-195,0)	(-41,0)	(-46,2)	(1,0)	(1,0)	(1,0)	(1,0)	
L1D 43>	(-21,19)	(321,2)	(-46,27)	(-1,24)	(3,2)	(2,2)	(-2,5)	(1,1)	(-39,1)	(22,1)	(-56,1)	(-121,1)	(-17,2)	(-30,1)	(191,1)	(-134,1)	
L1D 44>	(104,70)	(-76,9)	(-3,8)	(-2,40)	(24,4)	(2,32)	(0,17)	(-21,7)	(8,10)	(-42,14)	(102,1)	(-44,14)	(-46,34)	(-140,17)	(-1,11)	(46,3)	
L1D 45>	(-44,1)	(0,74)	(3,0)	(-45,73)	(-76,4)	(-43,0)	(104,4)	(-377,0)	(1,7)	(2,4)	(10,0)	(-46,28)	(-1,5)	(-429,0)	(62,0)	(-299,0)	
L1D 46>	(2,116)	(-48,27)	(1,35)	(-2,1)	(159,1)	(167,1)	(-27,0)	(-46,2)	(0,1)	(161,1)	(84,0)	(-8,0)	(-44,7)	(104,0)	(-142,0)	(166,1)	
L1D 47>	(-3,4)	(-8,69)	(-140,6)	(0,4)	(104,44)	(-76,4)	(1,54)	(-260,1)	(-143,5)	(-21,1)	(-151,1)	(101,3)	(-255,1)	(-1,4)	(-47,2)	(-385,1)	
L1D 48>	(-46,20)	(4,117)	(2,77)	(0,41)	(-48,17)	(-310,3)	(-276,1)	(-3,4)	(84,9)	(-2,74)	(24,6)	(1,15)	(22,5)	(-50,12)	(324,7)	(-156,2)	
L1D 49>	(1,77)	(84,4)	(324,6)	(-124,2)	(4,30)	(2,12)	(-8,54)	(-276,4)	(-91,2)	(0,3)	(-48,5)	(182,1)	(-143,2)	(-52,4)	(104,2)	(-78,3)	
L1D 50>	(-2,29)	(1,4)	(-48,34)	(0,17)	(-10,29)	(4,12)	(9,5)	(2,1)	(130,2)	(158,1)	(247,2)	(52,2)	(225,1)	(-143,1)	(-299,1)	(208,1)	
L1D 51>	(-3,34)	(-276,1)	(2,1)	(1,1)	(429,2)	(1,0)	(1,0)	(1,0)	(1,0)	(1,0)	(1,0)	(1,0)	(1,0)	(1,0)	(1,0)	(1,0)	
L1D 52>	(13,57)	(0,93)	(65,48)	(-39,30)	(-52,100)	(-273,26)	(143,32)	(117,21)	(-13,54)	(-312,17)	(-91,1)	(-117,19)	(-260,21)	(-156,29)	(169,10)	(26,32)	
L1D 53>	(2,3)	(-1,4)	(256,1)	(113,2)	(386,1)	(-82,1)	(-355,1)	(87,1)	(191,1)	(9,3)	(10,2)	(-8,1)	(1,0)	(1,0)	(1,0)	(1,0)	
L1D 54>	(0,17)	(271,1)	(-1,1)	(-234,1)	(45,1)	(-377,1)	(-54,16)	(4,1)	(-90,1)	(9,1)	(-208,1)	(-182,1)	(1,0)	(1,0)	(1,0)	(1,0)	
L1D 55>	(8,43)	(-2,2)	(0,4)	(-1,1)	(1,4)	(2,3)	(4,1)	(3,3)	(45,2)	(1,0)	(1,0)	(1,0)	(1,0)	(1,0)	(1,0)	(1,0)	
L1D 56>	(-363,5)	(113,3)	(-456,1)	(-39,1)	(-169,1)	(-1,2)	(-290,1)	(61,1)	(22,2)	(-173,1)	(-264,1)	(-143,1)	(-303,1)	(-108,1)	(-82,1)	(0,9)	
L1D 57>	(8,6)	(-130,1)	(39,1)	(-169,1)	(-455,1)	(208,1)	(52,1)	(273,1)	(-26,1)	(-39,1)	(1,0)	(1,0)	(1,0)	(1,0)	(1,0)	(1,0)	
L1D 58>	(8,2)	(2,1)	(1,0)	(1,0)	(1,0)	(1,0)	(1,0)	(1,0)	(1,0)	(1,0)	(1,0)	(1,0)	(1,0)	(1,0)	(1,0)	(1,0)	
L1D 59>	(-8,3)	(351,1)	(-47,1)	(1,0)	(1,0)	(1,0)	(1,0)	(1,0)	(1,0)	(1,0)	(1,0)	(1,0)	(1,0)	(1,0)	(1,0)	(1,0)	
L1D 60>	(-8,30)	(-117,1)	(-10,1)	(-130,1)	(-203,1)	(-229,1)	(156,1)	(2,1)	(-299,1)	(-169,1)	(83,1)	(-416,1)	(-177,1)	(0,1)	(-260,1)	(1,0)	
L1D 61>	(2,29)	(-130,1)	(-182,1)	(4,90)	(-234,1)	(-13,1)	(-221,1)	(299,1)	(-8,1)	(130,2)	(-61,1)	(13,1)	(0,1)	(169,1)	(-143,1)	(26,0)	
L1D 62>	(143,3)	(-286,2)	(-403,10)	(26,2)	(-52,2)	(130,8)	(0,27)	(364,6)	(2,63)	(-234,4)	(117,1)	(39,4)	(-169,7)	(13,4)	(4,37)	(-117,13)	
L1D 63>	(-10,70)	(2,14)	(-63,3)	(130,2)	(0,12)	(364,1)	(-61,2)	(4,5)	(325,2)	(-286,1)	(-247,1)	(-338,1)	(-221,1)	(52,1)	(104,2)	(28,1)	
L1D 64>	(-2,18)	(-328,7)	(-64,6)	(2,29)	(1,1)	(-3,22)	(-66,1)	(-330,2)	(-1,1)	(416,2)	(1,0)	(1,0)	(1,0)	(1,0)	(1,0)	(1,0)	
L1D 65>	(169,15)	(0,92)	(-351,26)	(-130,34)	(-156,37)	(26,42)	(78,39)	(-65,68)	(13,62)	(-39,39)	(-377,16)	(-208,1)	(234,15)	(195,16)	(-143,24)	(208,27)	
L1D 66>	(-66,3)	(-68,3)	(2,75)	(-2,2)	(-8,0)	(-392,2)	(-147,0)	(230,0)	(-251,0)	(113,0)	(-381,0)	(74,0)	(-64,0)	(-10,0)	(364,0)	(10,0)	
L1D 67>	(8,7)	(-221,2)	(0,5)	(-3,12)	(-2,3)	(13,1)	(2,1)	(152,1)	(-407,1)	(-225,3)	(113,1)	(-95,1)	(-1,1)	(-328,2)	(-104,1)	(65,1)	
L1D 68>	(-66,102)	(-70,29)	(-2,63)	(-68,18)	(0,20)	(2,23)	(8,18)	(-24,3)	(-26,7)	(-392,7)	(365,1)	(-219,0)	(-394,25)	(3,1)	(364,3)	(362,3)	
L1D 69>	(2,9)	(124,7)	(-39,1)	(-277,1)	(-1,1)	(-82,1)	(-186,1)	(-238,1)	(-264,1)	(364,4)	(-68,1)	(-220,3)	(130,1)	(1,0)	(1,0)	(1,0)	
L1D 70>	(-68,63)	(-2,33)	(2,112)	(0,13)	(-70,25)	(8,3)	(-39,1)	(3,1)	(124,3)	(-78,1)	(-455,1)	(362,1)	(208,1)	(-72,46)	(78,1)	(364,2)	
L1D 71>	(8,4)	(7,1)	(0,1)	(-2,1)	(-72,1)	(364,4)	(-220,1)	(-68,1)	(1,0)	(1,0)	(1,0)	(1,0)	(1,0)	(1,0)	(1,0)	(1,0)	
L1D 72>	(124,40)	(-3,7)	(-70,44)	(2,19)	(-24,78)	(-25,7)	(-73,4)	(-72,42)	(-74,14)	(0,50)	(-2,33)	(-1,3)	(4,2)	(-75,11)	(-26,14)	(-27,20)	
L1D 73>	(0,5)	(-8,36)	(-24,1)	(-73,76)	(-81,14)	(-346,1)	(-372,1)	(124,23)	(5,2)	(-112,1)	(-130,1)	(2,4)	(-281,1)	(-294,1)	(-385,1)	(260,1)	
L1D 74>	(2,111)	(-72,120)	(0,1)	(-2,2)	(-52,1)	(225,1)	(-182,1)	(117,1)	(4,66)	(147,1)	(-377,1)	(195,1)	(-76,3)	(-13,1)	(52,1)	(-24,2)	
L1D 75>	(4,30)	(124,6)	(2,7)	(-3,7)	(-273,7)	(0,9)	(-39,7)	(117,3)	(-312,4)	(-10,4)	(13,3)	(-2,1)	(-67,1)	(-208,6)	(182,1)	(-52,2)	
L1D 76>	(372,15)	(2,31)	(-10,42)	(-3,43)	(-76,64)	(-74,105)	(-2,80)	(48,15)	(-44,7)	(4,31)	(-78,68)	(0,11)	(156,2)	(364,1)	(221,1)	(-311,1)	
L1D 77>	(-80,4)	(48,6)	(2,27)	(-2,1)	(4,1)	(-76,5)	(0,4)	(-90,2)	(403,2)	(-78,1)	(1,0)	(1,0)	(1,0)	(1,0)	(1,0)	(1,0)	
L1D 78>	(-26,1)	(221,22)	(273,23)	(-169,24)	(-325,19)	(-104,54)	(169,26)	(260,18)	(-52,32)	(208,13)	(-39,52)	(0,112)	(-130,32)	(156,36)	(13,27)	(78,23)	
L1D 79>	(-3,9)	(-79,20)	(-77,3)	(10,3)	(2,1)	(-82,5)	(230,1)	(-43,1)	(35,1)	(9,5)	(-134,1)	(178,2)	(-26,1)	(87,1)	(-69,1)	(-1,4)	
L1D 80>	(-2,32)	(-3,8)	(-80,84)	(0,33)	(-324,28)	(-1,6)	(2,18)	(-83,16)	(-81,5)	(8,4)	(-240,12)	(-372,29)	(-82,15)	(-234,1)	(-375,6)	(4,1)	
L1D 81>	(-80,24)	(8,98)	(-73,7)	(-86,3)	(-85,4)	(-372,7)	(0,5)	(45,1)	(-81,2)	(-2,1)	(-65,1)	(-92,1)	(1,0)	(1,0)	(1,0)	(1,0)	
L1D 82>	(-82,3)	(2,87)	(0,6)	(-225,1)	(-98,1)	(-87,2)	(-242,1)	(-43,0)	(269,0)	(78,0)	(-329,0)	(-121,0)	(-30,0)	(-84,2)	(-244,2)	(242,1)	
L1D 83>	(-80,3)	(-83,2)	(-3,4)	(-324,2)	(8,18)	(-81,2)	(-88,7)	(-39,1)	(-372,1)	(52,1)	(-455,1)	(221,1)	(-91,3)	(78,1)	(273,1)	(-96,1)	
L1D 84>	(0,30)	(-2,20)	(-132,5)	(2,49)	(-82,32)	(160,38)	(8,7)	(-89,4)	(238,3)	(158,2)	(-90,1)	(-244,55)	(-84,22)	(240,3)	(-86,11)	(-246,6)	
L1D 85>	(6,0)	(-81,90)	(-86,2)	(-92,10)	(7,0)	(2,0)	(-244,0)	(-73,7)	(11,0)	(8,1)	(12,0)	(1,0)	(1,0)	(1,0)	(1,0)	(1,0)	
L1D 86>	(-2,5)	(-8,37)	(0,9)	(-84,45)	(-10,2)	(4,1)	(-117,1)	(1,30)	(-82,21)	(-88,3)	(-91,4)	(-1,37)	(-81,1)	(-93,8)	(-78,1)	(-86,5)	
L1D 87>	(-3,1)	(4,64)	(-244,6)	(130,1)	(-78,2)	(160,8)	(-85,2)	(-245,4)	(-81,9)	(-247,9)	(-94,2)	(1,5)	(-89,2)	(-83,5)	(2,30)	(-2,1)	
L1D 88>	(-82,27)	(2,13)	(234,5)	(4,18)	(-3,7)	(0,38)	(-52,3)	(286,9)	(65,1)	(117,8)	(-88,36)	(-80,3)	(-10,8)	(-8,10)	(-91,2)	(-13,4)	
L1D 89>	(-85,20)	(-10,52)	(1,10)	(-4,2)	(-91,1)	(-37,1)	(-87,3)	(-83,33)	(-94,6)	(-143,3)	(308,1)	(-93,2)	(-88,4)	(-39,2)	(-481,1)	(4,12)	
L1D 90>	(-86,9)	(-5,52)	(1,3)	(-84,32)	(-89,3)	(-95,4)	(-124,1)	(-65,1)	(0,30)	(2,29)	(-90,28)	(-333,1)	(-54,1)	(-92,1)	(390,2)	(-270,2)	
[...]
L1D 496>	(1,0)	(1,0)	(1,0)	(1,0)	(1,0)	(1,0)	(1,0)	(1,0)	(1,0)	(1,0)	(1,0)	(1,0)	(1,0)	(1,0)	(1,0)	(1,0)	
L1D 497>	(-2,1)	(8,1)	(1,0)	(1,0)	(1,0)	(1,0)	(1,0)	(1,0)	(1,0)	(1,0)	(1,0)	(1,0)	(1,0)	(1,0)	(1,0)	(1,0)	
L1D 498>	(1,0)	(1,0)	(1,0)	(1,0)	(1,0)	(1,0)	(1,0)	(1,0)	(1,0)	(1,0)	(1,0)	(1,0)	(1,0)	(1,0)	(1,0)	(1,0)	
L1D 499>	(1,0)	(1,0)	(1,0)	(1,0)	(1,0)	(1,0)	(1,0)	(1,0)	(1,0)	(1,0)	(1,0)	(1,0)	(1,0)	(1,0)	(1,0)	(1,0)	
L1D 500>	(-6,1)	(-442,1)	(1,0)	(1,0)	(1,0)	(1,0)	(1,0)	(1,0)	(1,0)	(1,0)	(1,0)	(1,0)	(1,0)	(1,0)	(1,0)	(1,0)	
L1D 501>	(1,0)	(1,0)	(1,0)	(1,0)	(1,0)	(1,0)	(1,0)	(1,0)	(1,0)	(1,0)	(1,0)	(1,0)	(1,0)	(1,0)	(1,0)	(1,0)	
L1D 502>	(1,0)	(1,0)	(1,0)	(1,0)	(1,0)	(1,0)	(1,0)	(1,0)	(1,0)	(1,0)	(1,0)	(1,0)	(1,0)	(1,0)	(1,0)	(1,0)	
L1D 503>	(1,0)	(1,0)	(1,0)	(1,0)	(1,0)	(1,0)	(1,0)	(1,0)	(1,0)	(1,0)	(1,0)	(1,0)	(1,0)	(1,0)	(1,0)	(1,0)	
L1D 504>	(-221,1)	(1,0)	(1,0)	(1,0)	(1,0)	(1,0)	(1,0)	(1,0)	(1,0)	(1,0)	(1,0)	(1,0)	(1,0)	(1,0)	(1,0)	(1,0)	
L1D 505>	(-52,1)	(-10,2)	(1,0)	(1,0)	(1,0)	(1,0)	(1,0)	(1,0)	(1,0)	(1,0)	(1,0)	(1,0)	(1,0)	(1,0)	(1,0)	(1,0)	
L1D 506>	(-351,1)	(1,0)	(1,0)	(1,0)	(1,0)	(1,0)	(1,0)	(1,0)	(1,0)	(1,0)	(1,0)	(1,0)	(1,0)	(1,0)	(1,0)	(1,0)	
L1D 507>	(-52,4)	(-130,35)	(-13,4)	(-403,7)	(-221,4)	(-182,2)	(-416,4)	(-117,10)	(0,2)	(-260,4)	(-377,14)	(-338,2)	(-208,3)	(-286,2)	(-65,6)	(-247,8)	
L1D 508>	(-248,1)	(1,0)	(1,0)	(1,0)	(1,0)	(1,0)	(1,0)	(1,0)	(1,0)	(1,0)	(1,0)	(1,0)	(1,0)	(1,0)	(1,0)	(1,0)	
L1D 509>	(1,0)	(1,0)	(1,0)	(1,0)	(1,0)	(1,0)	(1,0)	(1,0)	(1,0)	(1,0)	(1,0)	(1,0)	(1,0)	(1,0)	(1,0)	(1,0)	
L1D 510>	(1,0)	(1,0)	(1,0)	(1,0)	(1,0)	(1,0)	(1,0)	(1,0)	(1,0)	(1,0)	(1,0)	(1,0)	(1,0)	(1,0)	(1,0)	(1,0)	
L1D 511>	(1,0)	(1,0)	(1,0)	(1,0)	(1,0)	(1,0)	(1,0)	(1,0)	(1,0)	(1,0)	(1,0)	(1,0)	(1,0)	(1,0)	(1,0)	(1,0)	

L2C -64>	(1,132)	(-5,22)	(2,36)	(5,1)	(7,7)	(-2,16)	(4,9)	(-3,14)	(-7,14)	(-8,11)	(6,10)	(-9,9)	(-1,33)	(-6,15)	(3,9)	(-4,12)	
L2C -63>	(2,11)	(50,7)	(58,8)	(42,4)	(1,24)	(52,7)	(18,1)	(32,2)	(11,4)	(24,7)	(0,4)	(46,2)	(3,11)	(4,25)	(45,7)	(14,6)	
L2C -62>	(2,13)	(40,17)	(41,9)	(62,12)	(50,11)	(10,19)	(1,17)	(43,1)	(0,8)	(20,29)	(8,5)	(47,13)	(25,4)	(15,10)	(5,6)	(31,3)	
L2C -61>	(22,8)	(-2,9)	(5,5)	(8,1)	(25,6)	(39,18)	(57,17)	(26,9)	(17,7)	(61,20)	(13,6)	(28,6)	(44,7)	(0,24)	(1,29)	(56,12)	
L2C -60>	(1,45)	(44,26)	(10,12)	(15,17)	(52,50)	(58,1)	(39,22)	(-2,12)	(26,22)	(47,63)	(14,22)	(41,19)	(43,24)	(40,17)	(54,26)	(0,19)	
L2C -59>	(46,13)	(26,79)	(1,33)	(12,17)	(18,13)	(62,16)	(-1,19)	(10,1)	(59,39)	(54,15)	(29,11)	(23,17)	(0,26)	(31,10)	(21,12)	(51,51)	
L2C -58>	(40,26)	(9,14)	(5,19)	(22,8)	(58,47)	(8,17)	(42,16)	(34,1)	(31,14)	(21,17)	(23,8)	(24,17)	(47,10)	(49,14)	(1,58)	(13,24)	
L2C -57>	(41,71)	(28,44)	(52,75)	(2,44)	(31,1)	(3,36)	(37,51)	(21,37)	(50,41)	(58,51)	(55,28)	(29,35)	(45,20)	(54,86)	(27,6)	(15,135)	
L2C -56>	(26,52)	(2,26)	(57,70)	(56,158)	(1,73)	(23,17)	(0,116)	(37,21)	(15,20)	(41,17)	(30,15)	(43,17)	(46,9)	(4,34)	(42,7)	(5,1)	
L2C -55>	(42,67)	(55,94)	(11,75)	(33,22)	(6,33)	(57,143)	(47,37)	(45,50)	(49,1)	(29,39)	(50,65)	(24,41)	(39,44)	(41,31)	(32,32)	(15,17)	
L2C -54>	(25,21)	(57,53)	(-6,53)	(46,20)	(52,69)	(3,36)	(33,34)	(12,31)	(2,42)	(39,26)	(18,56)	(26,42)	(1,67)	(41,38)	(44,55)	(42,1)	
L2C -53>	(40,36)	(53,93)	(42,28)	(3,23)	(13,46)	(24,1)	(48,14)	(57,15)	(29,28)	(-5,17)	(49,22)	(39,33)	(55,45)	(1,86)	(52,40)	(4,6)	
L2C -52>	(50,118)	(1,161)	(31,74)	(33,51)	(39,92)	(16,1)	(37,54)	(14,46)	(29,169)	(54,67)	(15,51)	(44,51)	(-5,34)	(46,37)	(28,59)	(52,245)	
L2C -51>	(54,27)	(51,165)	(1,59)	(-3,45)	(26,154)	(49,43)	(47,27)	(9,67)	(12,36)	(-1,57)	(0,65)	(31,22)	(16,127)	(-9,1)	(38,23)	(36,45)	
L2C -50>	(1,120)	(0,100)	(32,73)	(3,74)	(52,182)	(11,120)	(26,214)	(59,124)	(56,15)	(21,169)	(10,57)	(47,70)	(15,21)	(36,51)	(22,1)	(24,66)	
L2C -49>	(49,239)	(28,52)	(39,55)	(-1,51)	(-3,51)	(54,1)	(-2,46)	(60,25)	(9,168)	(31,65)	(5,65)	(13,87)	(26,69)	(47,107)	(48,21)	(2,79)	
L2C -48>	(43,33)	(11,105)	(3,23)	(26,27)	(24,28)	(40,1)	(37,27)	(6,31)	(32,22)	(0,57)	(39,36)	(-1,32)	(16,27)	(10,110)	(1,94)	(15,20)	
L2C -47>	(0,74)	(37,39)	(47,128)	(49,39)	(8,96)	(3,39)	(9,38)	(6,43)	(38,39)	(15,1)	(30,27)	(-8,40)	(33,30)	(-3,45)	(52,119)	(-9,10)	
L2C -46>	(49,53)	(39,65)	(26,184)	(3,34)	(62,27)	(7,74)	(47,1)	(1,97)	(13,55)	(41,82)	(-1,163)	(23,58)	(20,69)	(38,114)	(-6,33)	(5,63)	
L2C -45>	(24,77)	(8,44)	(15,90)	(26,59)	(3,78)	(1,156)	(34,1)	(47,200)	(27,64)	(21,98)	(4,12)	(52,37)	(-5,56)	(44,46)	(55,26)	(60,13)	
L2C -44>	(20,1)	(21,97)	(0,139)	(-7,35)	(41,99)	(55,33)	(5,106)	(31,110)	(7,119)	(28,59)	(26,118)	(43,46)	(6,77)	(-5,81)	(24,117)	(11,169)	
L2C -43>	(30,46)	(12,67)	(4,42)	(1,87)	(13,47)	(8,40)	(-3,27)	(46,31)	(-5,31)	(7,40)	(26,47)	(47,46)	(29,1)	(9,61)	(33,38)	(6,88)	
L2C -42>	(16,141)	(49,1)	(11,72)	(2,40)	(26,68)	(34,96)	(13,62)	(42,149)	(47,88)	(29,74)	(21,57)	(14,103)	(32,78)	(37,85)	(7,58)	(52,53)	
L2C -41>	(35,26)	(8,129)	(30,14)	(41,146)	(31,102)	(5,85)	(39,1)	(2,115)	(1,57)	(13,101)	(7,81)	(38,52)	(57,18)	(12,58)	(-5,101)	(33,40)	
L2C -40>	(6,76)	(-13,33)	(11,93)	(37,94)	(39,196)	(0,109)	(-2,58)	(46,1)	(26,62)	(32,66)	(-1,69)	(1,230)	(14,46)	(3,61)	(8,143)	(13,165)	
L2C -39>	(10,222)	(29,201)	(47,134)	(3,154)	(31,1)	(26,216)	(-11,62)	(-8,125)	(18,135)	(1,132)	(15,185)	(-13,76)	(20,234)	(55,98)	(2,168)	(-3,130)	
L2C -38>	(1,176)	(-1,118)	(49,44)	(33,109)	(38,1)	(4,66)	(-11,38)	(-6,72)	(8,152)	(15,65)	(18,100)	(-8,116)	(13,90)	(28,78)	(5,95)	(41,69)	
L2C -37>	(1,68)	(13,50)	(31,96)	(37,144)	(18,169)	(8,147)	(32,62)	(44,35)	(-2,93)	(34,87)	(3,70)	(55,1)	(28,24)	(39,101)	(45,47)	(26,95)	
L2C -36>	(20,81)	(12,36)	(34,94)	(26,154)	(5,1)	(39,71)	(29,58)	(3,118)	(16,74)	(-1,80)	(18,85)	(-9,16)	(11,54)	(49,46)	(10,172)	(7,77)	
L2C -35>	(30,61)	(-2,46)	(39,66)	(23,29)	(0,137)	(-5,75)	(-10,1)	(13,84)	(6,66)	(40,73)	(32,59)	(35,141)	(-3,162)	(26,187)	(1,219)	(9,84)	
L2C -34>	(1,72)	(29,100)	(34,220)	(21,111)	(16,60)	(36,53)	(-3,109)	(10,61)	(39,76)	(-5,130)	(-17,1)	(14,50)	(40,84)	(8,80)	(46,23)	(-23,15)	
L2C -33>	(8,78)	(-9,24)	(2,70)	(-4,52)	(-11,138)	(41,74)	(1,73)	(-6,51)	(-13,99)	(-10,1)	(33,183)	(-3,56)	(5,153)	(30,114)	(44,33)	(13,147)	
L2C -32>	(29,95)	(-20,52)	(-5,59)	(18,61)	(14,37)	(-2,85)	(11,86)	(10,30)	(1,168)	(30,1)	(-22,36)	(37,117)	(34,67)	(19,83)	(-17,12)	(45,25)	
L2C -31>	(7,1)	(-10,51)	(38,73)	(0,147)	(8,86)	(49,44)	(15,76)	(-11,105)	(29,92)	(-1,86)	(46,40)	(47,50)	(20,46)	(12,48)	(-26,48)	(1,105)	
L2C -30>	(17,48)	(-14,13)	(30,165)	(-19,19)	(2,51)	(38,38)	(-1,95)	(12,1)	(47,23)	(39,34)	(60,4)	(14,33)	(0,57)	(25,29)	(1,119)	(16,25)	
L2C -29>	(1,63)	(26,54)	(37,32)	(47,18)	(13,69)	(29,141)	(19,1)	(8,42)	(-18,27)	(21,43)	(16,54)	(6,36)	(14,26)	(0,53)	(-2,59)	(5,55)	
L2C -28>	(33,109)	(-5,94)	(18,1)	(34,60)	(-16,91)	(28,202)	(36,87)	(41,90)	(11,56)	(0,186)	(-3,109)	(-1,122)	(-11,63)	(8,117)	(-28,15)	(13,169)	
L2C -27>	(22,251)	(1,187)	(37,77)	(0,1)	(-3,47)	(14,119)	(-10,112)	(39,58)	(18,78)	(-28,26)	(44,55)	(4,27)	(52,44)	(24,250)	(29,253)	(27,188)	
L2C -26>	(11,68)	(8,64)	(23,62)	(26,163)	(-3,1)	(-1,43)	(-28,10)	(-5,79)	(-13,96)	(-8,111)	(52,26)	(13,122)	(-23,23)	(25,45)	(1,83)	(10,108)	
L2C -25>	(25,176)	(0,102)	(1,96)	(12,90)	(-26,26)	(-1,89)	(18,1)	(38,62)	(36,50)	(13,71)	(-13,52)	(15,77)	(26,129)	(2,69)	(33,71)	(30,45)	
L2C -24>	(3,160)	(24,235)	(6,64)	(8,1)	(18,77)	(9,44)	(0,82)	(34,76)	(53,11)	(37,88)	(11,83)	(-2,101)	(-8,50)	(29,91)	(-13,65)	(-24,49)	
L2C -23>	(16,1)	(33,59)	(1,86)	(24,107)	(3,153)	(13,114)	(36,134)	(-9,132)	(15,133)	(-3,127)	(41,50)	(47,58)	(0,150)	(55,39)	(-16,80)	(10,141)	
L2C -22>	(18,95)	(29,40)	(-23,21)	(5,124)	(1,156)	(43,97)	(26,1)	(31,47)	(-18,24)	(10,23)	(6,51)	(22,169)	(3,65)	(-19,16)	(11,55)	(30,34)	
L2C -21>	(34,60)	(-5,1)	(-26,34)	(23,56)	(31,71)	(8,138)	(0,80)	(20,35)	(21,131)	(-23,23)	(-25,10)	(-7,35)	(13,88)	(29,51)	(3,68)	(15,48)	
L2C -20>	(-1,100)	(9,90)	(42,1)	(-31,18)	(-13,77)	(10,124)	(52,22)	(5,178)	(2,117)	(-6,104)	(-5,174)	(-9,30)	(-18,42)	(41,46)	(17,65)	(-3,119)	
L2C -19>	(1,138)	(-10,86)	(55,38)	(13,67)	(44,1)	(16,67)	(37,42)	(-7,50)	(19,121)	(-33,17)	(-26,86)	(23,25)	(-13,49)	(-2,104)	(36,50)	(27,31)	
L2C -18>	(1,119)	(20,104)	(15,110)	(18,215)	(31,90)	(16,163)	(3,131)	(8,117)	(37,74)	(-2,68)	(5,170)	(17,1)	(-13,131)	(47,83)	(7,80)	(41,66)	
L2C -17>	(17,157)	(-18,37)	(1,165)	(33,33)	(2,110)	(8,48)	(-1,128)	(30,111)	(-26,100)	(35,39)	(13,81)	(36,1)	(14,25)	(22,85)	(18,67)	(26,57)	
L2C -16>	(44,22)	(21,1)	(5,99)	(26,36)	(-31,16)	(6,95)	(-18,38)	(8,110)	(13,83)	(-33,12)	(16,130)	(23,31)	(41,26)	(-8,88)	(-4,35)	(-5,118)	
L2C -15>	(-37,11)	(5,50)	(52,29)	(-35,8)	(18,69)	(0,75)	(26,66)	(-34,11)	(15,139)	(-24,42)	(8,1)	(-11,48)	(-18,22)	(-14,39)	(-13,61)	(44,28)	
L2C -14>	(1,185)	(27,72)	(0,61)	(19,11)	(-15,75)	(5,97)	(-28,29)	(-46,9)	(-41,10)	(6,63)	(-21,70)	(39,92)	(-3,1)	(-13,40)	(8,87)	(11,110)	
L2C -13>	(3,72)	(-26,36)	(-13,72)	(-29,20)	(23,30)	(19,26)	(-36,1)	(26,93)	(13,154)	(14,33)	(-18,73)	(-16,32)	(-22,29)	(37,35)	(10,91)	(1,86)	
L2C -12>	(25,99)	(13,132)	(18,86)	(15,118)	(-8,76)	(-6,1)	(-9,69)	(36,61)	(-16,135)	(21,67)	(26,123)	(2,142)	(12,228)	(20,77)	(7,161)	(5,131)	
L2C -11>	(1,139)	(3,75)	(40,1)	(24,62)	(5,70)	(44,45)	(16,110)	(14,118)	(-8,48)	(-18,92)	(6,89)	(37,40)	(23,35)	(42,29)	(19,60)	(21,50)	
L2C -10>	(-1,174)	(5,246)	(47,68)	(-15,55)	(-24,74)	(8,172)	(1,209)	(25,61)	(-6,87)	(-11,1)	(11,210)	(18,119)	(-36,30)	(-40,25)	(-16,144)	(20,87)	
L2C -9>	(34,18)	(-8,21)	(1,204)	(3,33)	(-9,17)	(14,20)	(8,30)	(-15,41)	(-1,70)	(9,54)	(39,11)	(2,30)	(0,44)	(4,35)	(21,15)	(31,1)	
L2C -8>	(3,77)	(15,62)	(-18,66)	(-6,46)	(1,163)	(-7,33)	(8,103)	(7,65)	(-1,77)	(-9,14)	(26,34)	(-8,59)	(-23,53)	(-3,60)	(-27,1)	(-41,15)	
L2C -7>	(13,10)	(54,1)	(1,6)	(-1,11)	(-3,4)	(11,17)	(8,171)	(7,7)	(3,3)	(2,5)	(10,22)	(4,2)	(12,9)	(0,2)	(-23,3)	(18,4)	
L2C -6>	(-20,44)	(-28,1)	(-7,56)	(-2,56)	(-3,50)	(-5,36)	(-4,29)	(1,186)	(0,61)	(5,57)	(-1,34)	(-31,22)	(6,131)	(40,6)	(13,58)	(-33,44)	
L2C -5>	(3,21)	(6,165)	(-7,7)	(1,38)	(-36,12)	(10,52)	(2,33)	(7,64)	(0,76)	(-15,11)	(8,89)	(-1,30)	(5,44)	(-10,11)	(-5,20)	(26,1)	
L2C -4>	(1,64)	(6,45)	(-1,35)	(9,22)	(13,12)	(5,203)	(10,62)	(-9,13)	(30,8)	(-2,5)	(4,35)	(2,21)	(-3,16)	(7,71)	(-21,1)	(0,30)	
L2C -3>	(-18,86)	(-15,127)	(1,248)	(-31,34)	(5,177)	(37,29)	(0,184)	(-2,166)	(4,1)	(-1,78)	(-16,49)	(27,31)	(52,14)	(-49,30)	(57,8)	(-3,71)	
L2C -2>	(1,185)	(-6,19)	(2,98)	(3,162)	(10,72)	(-1,137)	(-11,26)	(-3,1)	(36,26)	(26,33)	(-45,12)	(15,32)	(0,80)	(17,13)	(28,12)	(5,66)	
L2C -1>	(-20,3)	(0,22)	(6,16)	(2,158)	(-5,16)	(-2,29)	(-1,24)	(5,15)	(1,59)	(8,20)	(3,23)	(-13,14)	(-31,1)	(-3,10)	(-8,12)	(-18,8)	
L2C 0>	(1,43)	(2,14)	(0,198)	(-19,4)	(-5,10)	(-26,10)	(-1,15)	(-16,7)	(-2,9)	(5,11)	(37,1)	(-8,20)	(21,16)	(23,9)	(13,10)	(34,4)	
L2C 1>	(21,1)	(-6,7)	(-8,7)	(1,167)	(-11,1)	(2,16)	(-9,1)	(-4,3)	(-7,16)	(4,0)	(7,0)	(-5,8)	(-32,0)	(-47,0)	(-2,1)	(-3,3)	
L2C 2>	(-29,1)	(5,14)	(4,12)	(-1,22)	(1,216)	(0,6)	(2,16)	(3,11)	(-2,3)	(-7,5)	(8,4)	(-8,8)	(-3,4)	(-15,2)	(-6,4)	(-5,4)	
L2C 3>	(-2,32)	(1,233)	(0,15)	(5,32)	(2,52)	(8,9)	(-5,31)	(3,26)	(10,12)	(15,9)	(34,1)	(-26,8)	(20,5)	(-3,28)	(-34,7)	(-1,21)	
L2C 4>	(1,228)	(6,12)	(-3,16)	(-31,1)	(4,13)	(-2,11)	(3,18)	(-4,21)	(8,5)	(-8,7)	(2,22)	(0,10)	(-5,17)	(-13,18)	(-1,19)	(9,14)	
L2C 5>	(1,232)	(-23,1)	(16,20)	(-1,10)	(6,13)	(4,11)	(-10,19)	(-3,34)	(3,32)	(10,12)	(2,40)	(5,30)	(-8,23)	(-5,41)	(18,9)	(-16,12)	
L2C 6>	(1,169)	(8,12)	(-2,5)	(5,10)	(4,5)	(3,4)	(7,7)	(0,5)	(-5,7)	(-1,15)	(-8,12)	(2,19)	(18,8)	(-6,25)	(-21,1)	(10,7)	
L2C 7>	(1,250)	(0,8)	(-10,7)	(4,14)	(-8,7)	(-11,1)	(-7,13)	(-5,8)	(5,13)	(6,9)	(-20,6)	(2,6)	(-4,8)	(-2,16)	(11,9)	(3,9)	
L2C 8>	(1,26)	(3,37)	(-5,8)	(-13,12)	(-21,1)	(-11,10)	(-19,6)	(5,13)	(0,9)	(2,255)	(33,6)	(-8,14)	(-7,3)	(-26,12)	(-3,4)	(36,5)	
L2C 9>	(1,173)	(-39,29)	(-9,153)	(-2,89)	(-5,74)	(-26,46)	(-3,1)	(13,130)	(5,45)	(21,37)	(-17,34)	(-22,62)	(-48,31)	(-4,111)	(-29,33)	(-14,96)	
L2C 10>	(1,253)	(-1,12)	(-2,1)	(2,22)	(-5,13)	(21,11)	(-40,2)	(5,7)	(10,3)	(0,13)	(19,6)	(6,8)	(-13,20)	(-8,11)	(-10,17)	(8,7)	
L2C 11>	(-10,57)	(2,169)	(-21,181)	(37,1)	(-29,48)	(-11,203)	(28,36)	(-3,109)	(8,65)	(0,176)	(5,115)	(-22,70)	(-16,94)	(-24,51)	(-26,65)	(13,66)	
L2C 12>	(24,19)	(-5,78)	(1,248)	(-28,1)	(-33,29)	(-21,42)	(42,8)	(13,33)	(-39,19)	(-13,56)	(-25,62)	(-7,48)	(8,38)	(22,10)	(16,32)	(6,65)	
L2C 13>	(15,33)	(-16,65)	(13,58)	(18,55)	(26,33)	(-47,28)	(7,58)	(0,85)	(1,173)	(-2,111)	(-43,8)	(-4,52)	(-37,32)	(-1,62)	(20,1)	(-34,47)	
L2C 14>	(0,52)	(8,37)	(-1,72)	(13,35)	(10,86)	(-18,37)	(-6,90)	(12,44)	(2,80)	(-11,66)	(18,52)	(1,171)	(-9,51)	(-14,114)	(21,1)	(-13,67)	
L2C 15>	(1,87)	(-24,12)	(14,1)	(-12,27)	(-3,37)	(-23,35)	(16,23)	(26,27)	(-36,20)	(6,28)	(-26,48)	(-8,41)	(-39,58)	(-17,34)	(-15,154)	(21,30)	
L2C 16>	(1,93)	(2,132)	(39,1)	(-11,181)	(-10,87)	(-8,96)	(7,94)	(26,84)	(5,123)	(0,140)	(-6,77)	(-24,121)	(-2,112)	(3,107)	(-28,46)	(13,71)	
L2C 17>	(-4,50)	(-20,38)	(-30,60)	(-1,34)	(-42,6)	(-15,47)	(-28,29)	(-13,93)	(-23,33)	(-17,140)	(5,32)	(1,96)	(-43,22)	(26,47)	(-51,1)	(-24,14)	
L2C 18>	(37,1)	(-15,65)	(-17,42)	(-3,92)	(-18,163)	(3,85)	(-16,38)	(-8,81)	(18,22)	(0,70)	(-7,54)	(-12,47)	(-21,42)	(16,49)	(-5,65)	(-39,31)	
L2C 19>	(-36,24)	(-34,56)	(15,48)	(-19,229)	(-52,20)	(20,37)	(4,35)	(-35,1)	(-18,71)	(-23,32)	(-14,56)	(-28,16)	(10,127)	(0,60)	(-29,57)	(-1,150)	
L2C 20>	(-3,98)	(-17,50)	(-20,181)	(8,131)	(0,162)	(-5,130)	(-31,81)	(-1,22)	(-26,122)	(5,108)	(-46,35)	(14,35)	(1,139)	(-44,53)	(-10,1)	(-56,9)	
L2C 21>	(-40,34)	(-21,181)	(-13,62)	(-26,84)	(12,14)	(-19,65)	(0,67)	(16,39)	(-20,55)	(-3,58)	(-24,66)	(-55,28)	(-6,76)	(2,58)	(-8,78)	(-27,1)	
L2C 22>	(8,184)	(-11,1)	(2,111)	(-6,71)	(-27,180)	(-5,124)	(1,180)	(-9,140)	(-4,88)	(-26,108)	(-3,66)	(3,130)	(4,135)	(-18,103)	(-1,136)	(-42,51)	
L2C 23>	(-7,115)	(-23,219)	(9,45)	(-1,46)	(-3,86)	(-41,98)	(3,161)	(-5,154)	(-49,70)	(-37,49)	(5,160)	(1,163)	(-33,126)	(-47,69)	(8,142)	(-40,1)	
L2C 24>	(-24,228)	(-17,19)	(-8,93)	(-27,78)	(-15,58)	(-18,85)	(-47,53)	(-6,75)	(-11,74)	(6,14)	(0,95)	(15,118)	(-34,1)	(3,56)	(-21,97)	(-36,37)	
L2C 25>	(-31,1)	(-2,66)	(1,195)	(-25,145)	(-26,80)	(-44,102)	(-21,39)	(-18,97)	(-7,81)	(-8,47)	(-34,32)	(8,46)	(-17,107)	(-13,53)	(14,33)	(-15,65)	
L2C 26>	(-29,78)	(-10,111)	(-31,1)	(-1,43)	(10,54)	(-23,113)	(7,68)	(-24,87)	(5,127)	(-40,56)	(2,71)	(-5,104)	(-28,63)	(3,60)	(-13,131)	(8,61)	
L2C 27>	(12,31)	(-31,39)	(1,82)	(-17,76)	(-13,62)	(-3,131)	(-45,22)	(2,33)	(-16,73)	(-47,45)	(0,58)	(-14,64)	(-34,37)	(-9,1)	(13,35)	(-44,17)	
L2C 28>	(24,14)	(3,1)	(-28,168)	(-29,42)	(-7,69)	(-3,50)	(-33,57)	(16,31)	(-9,16)	(-24,34)	(-52,13)	(-2,82)	(-13,94)	(1,85)	(-34,87)	(-25,59)	
L2C 29>	(1,16)	(10,1)	(-21,55)	(-29,153)	(13,39)	(-3,59)	(-8,43)	(-14,18)	(-5,65)	(-16,64)	(-10,34)	(-55,5)	(-41,10)	(-31,66)	(-30,9)	(-34,30)	
L2C 30>	(-34,1)	(-59,4)	(-15,56)	(13,53)	(19,22)	(0,59)	(-5,34)	(8,52)	(-29,27)	(-24,88)	(-13,61)	(-35,82)	(-25,40)	(1,101)	(-16,18)	(-39,154)	
L2C 31>	(-18,94)	(-37,38)	(-16,62)	(-2,75)	(13,45)	(-34,65)	(-58,10)	(-31,157)	(-36,82)	(-39,52)	(-5,114)	(-25,1)	(15,31)	(-45,16)	(-21,69)	(-57,13)	
L2C 32>	(-13,56)	(-34,74)	(-6,56)	(12,27)	(5,56)	(-29,66)	(-3,50)	(2,68)	(-42,47)	(-50,22)	(-22,35)	(-8,86)	(0,86)	(15,33)	(4,1)	(-32,148)	
L2C 33>	(-17,1)	(-2,79)	(-26,59)	(-39,63)	(11,55)	(-25,26)	(-44,49)	(22,6)	(1,133)	(-33,151)	(-5,109)	(-54,16)	(14,27)	(-31,63)	(-4,34)	(-36,55)	
L2C 34>	(10,52)	(-52,59)	(-5,181)	(-21,179)	(-11,145)	(-55,20)	(-36,144)	(-26,1)	(1,130)	(-41,60)	(-13,153)	(-16,176)	(-49,36)	(2,78)	(-31,91)	(16,40)	
L2C 35>	(-13,98)	(-39,63)	(19,18)	(-55,1)	(-35,184)	(-26,85)	(-34,85)	(-9,52)	(4,48)	(1,80)	(2,106)	(6,111)	(5,31)	(10,146)	(-12,37)	(-33,41)	
L2C 36>	(3,76)	(-18,78)	(-39,136)	(-28,64)	(-43,33)	(-24,33)	(-32,119)	(-34,74)	(18,1)	(-31,78)	(-13,68)	(-44,91)	(-15,73)	(-36,185)	(6,42)	(23,7)	
L2C 37>	(-8,99)	(-37,144)	(2,78)	(-13,74)	(-41,1)	(-21,89)	(-28,92)	(-45,16)	(-48,22)	(-5,85)	(25,22)	(-6,67)	(-1,97)	(-42,57)	(-31,77)	(-11,64)	
L2C 38>	(-26,43)	(-48,138)	(-18,76)	(17,1)	(-8,61)	(1,202)	(-23,51)	(-44,67)	(-25,71)	(-42,23)	(6,66)	(-38,190)	(-5,110)	(-10,98)	(-36,163)	(-35,32)	
L2C 39>	(-37,160)	(-34,97)	(-31,181)	(13,119)	(3,91)	(-29,80)	(-39,237)	(-21,135)	(18,1)	(-13,99)	(-33,48)	(-47,133)	(-40,114)	(-11,132)	(2,93)	(-23,119)	
L2C 40>	(-14,89)	(1,110)	(-34,72)	(-23,37)	(-11,51)	(-45,43)	(-44,121)	(-29,112)	(-10,22)	(-27,47)	(-17,1)	(-30,58)	(-16,75)	(2,49)	(-5,26)	(7,81)	
L2C 41>	(5,56)	(-7,1)	(-39,82)	(-51,29)	(-2,71)	(-40,6)	(-28,178)	(-5,156)	(-23,207)	(17,6)	(-8,66)	(-31,90)	(16,52)	(-33,51)	(-42,62)	(-10,86)	
L2C 42>	(-13,96)	(-28,125)	(-33,37)	(-41,100)	(-42,215)	(-37,104)	(-45,140)	(-21,139)	(-27,1)	(0,112)	(-26,126)	(-52,83)	(-40,110)	(-36,130)	(-15,67)	(18,25)	
L2C 43>	(-26,53)	(-5,78)	(-1,19)	(-43,113)	(3,25)	(1,98)	(-39,67)	(-33,106)	(-46,92)	(-44,65)	(-38,68)	(-47,98)	(-28,37)	(-13,75)	(-56,1)	(-22,27)	
L2C 44>	(-13,134)	(-44,125)	(-23,1)	(-2,62)	(0,75)	(-18,115)	(-36,221)	(-15,77)	(-21,67)	(-49,47)	(-47,87)	(-7,39)	(-20,36)	(-35,22)	(-39,88)	(-22,17)	
L2C 45>	(-26,107)	(-45,121)	(-24,48)	(-29,53)	(2,84)	(-35,80)	(-37,50)	(-52,39)	(-5,47)	(-3,150)	(-14,127)	(-11,101)	(-18,1)	(-49,29)	(1,89)	(-55,25)	
L2C 46>	(-46,110)	(-5,52)	(-20,61)	(-12,78)	(5,46)	(-41,1)	(-36,58)	(10,32)	(-31,74)	(-30,27)	(-2,157)	(-37,16)	(1,105)	(-51,33)	(-21,26)	(-44,74)	
L2C 47>	(1,89)	(-26,194)	(-2,1)	(-20,43)	(-11,59)	(-31,104)	(-19,162)	(-16,107)	(-27,80)	(-15,86)	(-3,211)	(-49,106)	(-8,162)	(-37,138)	(-24,108)	(-23,73)	
L2C 48>	(-8,28)	(-9,40)	(-50,28)	(-44,23)	(-6,27)	(-38,42)	(1,85)	(8,12)	(-39,38)	(-42,40)	(-21,44)	(-19,31)	(-14,1)	(-10,14)	(5,10)	(2,24)	
L2C 49>	(-28,27)	(7,1)	(-2,47)	(-3,21)	(-7,40)	(11,38)	(-5,90)	(-34,37)	(1,33)	(-49,164)	(-29,49)	(-21,42)	(-8,108)	(-15,55)	(-4,19)	(-36,33)	
L2C 50>	(4,19)	(-50,100)	(-24,81)	(-60,56)	(-13,44)	(-23,114)	(-34,41)	(-21,95)	(-19,87)	(-1,66)	(1,50)	(-5,66)	(-14,37)	(-29,66)	(-46,1)	(-44,39)	
L2C 51>	(-30,27)	(-4,24)	(-44,35)	(-38,28)	(-39,53)	(-42,79)	(-5,50)	(-13,1)	(1,78)	(-51,104)	(-33,27)	(-31,34)	(-29,114)	(-2,32)	(6,65)	(-18,35)	
L2C 52>	(-44,98)	(-31,66)	(-45,1)	(-5,67)	(-21,108)	(-13,102)	(-23,74)	(-15,60)	(-62,14)	(-35,173)	(-26,182)	(1,164)	(-28,190)	(-39,82)	(-36,62)	(-10,78)	
L2C 53>	(-55,24)	(-24,144)	(-47,34)	(-11,46)	(-9,12)	(-53,136)	(-22,24)	(-39,24)	(-42,39)	(-1,31)	(-35,13)	(-8,27)	(-16,46)	(-52,1)	(4,10)	(-5,16)	
L2C 54>	(-10,57)	(-44,38)	(-7,35)	(-49,38)	(-21,59)	(-28,26)	(-20,33)	(-34,1)	(-37,18)	(-33,47)	(-47,24)	(-57,43)	(-18,47)	(-13,34)	(-36,38)	(-39,34)	
L2C 55>	(-15,23)	(-32,100)	(-55,97)	(-18,67)	(-29,152)	(-27,124)	(-39,37)	(-23,148)	(-42,31)	(-26,1)	(-24,50)	(-6,24)	(-57,34)	(-54,24)	(-45,33)	(-52,62)	
L2C 56>	(-41,60)	(-34,12)	(1,41)	(-44,21)	(-18,19)	(-31,13)	(-26,16)	(-50,14)	(-56,190)	(-46,1)	(-12,23)	(-1,7)	(0,16)	(-55,47)	(-16,12)	(-3,7)	
L2C 57>	(-54,57)	(-37,18)	(-36,34)	(-2,30)	(0,47)	(-55,65)	(-18,74)	(-57,82)	(-44,40)	(-16,104)	(-31,70)	(-52,125)	(4,1)	(-8,36)	(-22,30)	(-21,68)	
L2C 58>	(-16,88)	(-35,14)	(-37,37)	(2,14)	(-11,28)	(-29,37)	(-28,33)	(-47,48)	(-40,14)	(-32,1)	(-57,106)	(-63,10)	(-8,22)	(-55,26)	(-14,16)	(-44,11)	
L2C 59>	(-29,47)	(-46,9)	(-39,10)	(-18,21)	(-9,117)	(-55,10)	(1,15)	(-8,13)	(-7,9)	(-36,1)	(-2,15)	(-25,9)	(-13,24)	(0,12)	(-16,10)	(-38,15)	
L2C 60>	(-59,15)	(-26,15)	(-5,13)	(-21,46)	(-30,12)	(-39,25)	(-51,1)	(-3,15)	(-11,32)	(-48,8)	(-16,45)	(-22,12)	(-8,14)	(-44,13)	(-13,22)	(-31,17)	
L2C 61>	(-60,1)	(-55,25)	(-38,53)	(-56,13)	(-21,12)	(-27,96)	(-16,13)	(-47,8)	(-6,4)	(1,29)	(-9,6)	(-30,4)	(-48,5)	(-58,6)	(-4,10)	(-42,4)	
L2C 62>	(-47,5)	(-7,21)	(-5,6)	(-34,10)	(-36,9)	(-29,16)	(0,21)	(-54,43)	(-30,1)	(-2,12)	(-3,7)	(-16,7)	(-61,7)	(-62,18)	(-18,7)	(-59,26)	
L2C 63>	(-52,3)	(-21,4)	(-63,2)	(-14,7)	(-32,3)	(-47,14)	(-42,2)	(-26,3)	(-35,2)	(-8,6)	(-30,5)	(-23,2)	(-1,6)	(-33,1)	(-3,9)	(-16,37)	

DRAM Statistics
 CHANNEL 0
 RQ ROW_BUFFER_HIT:     354903  ROW_BUFFER_MISS:     805069
 DBUS_CONGESTED:     542231
 WQ ROW_BUFFER_HIT:       6872  ROW_BUFFER_MISS:      19411  FULL:          0

 AVG_CONGESTED_CYCLE: 6
