
*** ChampSim Multicore Out-of-Order Simulator ***

Warmup Instructions: 1000000
Simulation Instructions: 10000000
Number of CPUs: 1
LLC sets: 2048
LLC ways: 16
Off-chip DRAM Size: 4096 MB Channels: 1 Width: 64-bit Data Rate: 3200 MT/s

CPU 0 runs /home/virtualcse/Data-Prefetching/ChampSim/dpc3_traces/607.cactuBSSN_s-3477B.champsimtrace.xz
Ultra pref. initializing...
Ultra pref. initialized
Ultra pref. initializing...
Ultra pref. initialized

Warmup complete CPU 0 instructions: 1000004 cycles: 478793 (Simulation time: 0 hr 0 min 2 sec) 

Heartbeat CPU 0 instructions: 10000002 cycles: 7817183 heartbeat IPC: 1.27923 cumulative IPC: 1.22643 (Simulation time: 0 hr 0 min 18 sec) 
Finished CPU 0 instructions: 10000002 cycles: 8157264 cumulative IPC: 1.2259 (Simulation time: 0 hr 0 min 20 sec) 

CPU 0 Branch Prediction Accuracy: 99.9836% MPKI: 0.0011 Average ROB Occupancy at Mispredict: 9

ChampSim completed all CPUs

Region of Interest Statistics

CPU 0 cumulative IPC: 1.2259 instructions: 10000002 cycles: 8157264
L1D TOTAL     ACCESS:    5769779  HIT:    4601011  MISS:    1168768
L1D LOAD      ACCESS:    3154915  HIT:    2467789  MISS:     687126
L1D RFO       ACCESS:     782702  HIT:     718778  MISS:      63924
L1D PREFETCH  ACCESS:    1832162  HIT:    1414444  MISS:     417718
L1D WRITEBACK ACCESS:          0  HIT:          0  MISS:          0
L1D PREFETCH  REQUESTED:   21426276  ISSUED:    9464483  USEFUL:      39436  USELESS:     413860
L1D AVERAGE MISS LATENCY: 22.2885 cycles
L1I TOTAL     ACCESS:     965248  HIT:     676046  MISS:     289202
L1I LOAD      ACCESS:     965248  HIT:     676046  MISS:     289202
L1I RFO       ACCESS:          0  HIT:          0  MISS:          0
L1I PREFETCH  ACCESS:          0  HIT:          0  MISS:          0
L1I WRITEBACK ACCESS:          0  HIT:          0  MISS:          0
L1I PREFETCH  REQUESTED:          0  ISSUED:          0  USEFUL:          0  USELESS:          0
L1I AVERAGE MISS LATENCY: 13.0864 cycles
L2C TOTAL     ACCESS:    5343667  HIT:    5285574  MISS:      58093
L2C LOAD      ACCESS:     956629  HIT:     954415  MISS:       2214
L2C RFO       ACCESS:      63475  HIT:      57589  MISS:       5886
L2C PREFETCH  ACCESS:    4249742  HIT:    4199759  MISS:      49983
L2C WRITEBACK ACCESS:      73821  HIT:      73811  MISS:         10
L2C PREFETCH  REQUESTED:   20883195  ISSUED:    6260690  USEFUL:      49372  USELESS:       8722
L2C AVERAGE MISS LATENCY: 157.966 cycles
LLC TOTAL     ACCESS:      63948  HIT:      37975  MISS:      25973
LLC LOAD      ACCESS:       2196  HIT:       1345  MISS:        851
LLC RFO       ACCESS:       5886  HIT:         36  MISS:       5850
LLC PREFETCH  ACCESS:      50001  HIT:      30729  MISS:      19272
LLC WRITEBACK ACCESS:       5865  HIT:       5865  MISS:          0
LLC PREFETCH  REQUESTED:          0  ISSUED:          0  USEFUL:        850  USELESS:       2519
LLC AVERAGE MISS LATENCY: 284.295 cycles
Major fault: 0 Minor fault: 669

L1D -512>	(-172,0)	(-6,0)	(3,0)	(-1,1)	(345,0)	(171,0)	(0,0)	(82,0)	(1,96)	(172,0)	(-10,0)	(344,0)	(2,0)	(-7,0)	(-2,0)	(-60,0)	
L1D -511>	(1,0)	(1,0)	(1,0)	(1,0)	(1,0)	(1,0)	(1,0)	(1,0)	(1,0)	(1,0)	(1,0)	(1,0)	(1,0)	(1,0)	(1,0)	(1,0)	
L1D -510>	(1,0)	(1,0)	(1,0)	(1,0)	(1,0)	(1,0)	(1,0)	(1,0)	(1,0)	(1,0)	(1,0)	(1,0)	(1,0)	(1,0)	(1,0)	(1,0)	
L1D -509>	(1,0)	(1,0)	(1,0)	(1,0)	(1,0)	(1,0)	(1,0)	(1,0)	(1,0)	(1,0)	(1,0)	(1,0)	(1,0)	(1,0)	(1,0)	(1,0)	
L1D -508>	(1,0)	(1,0)	(1,0)	(1,0)	(1,0)	(1,0)	(1,0)	(1,0)	(1,0)	(1,0)	(1,0)	(1,0)	(1,0)	(1,0)	(1,0)	(1,0)	
L1D -507>	(1,0)	(1,0)	(1,0)	(1,0)	(1,0)	(1,0)	(1,0)	(1,0)	(1,0)	(1,0)	(1,0)	(1,0)	(1,0)	(1,0)	(1,0)	(1,0)	
L1D -506>	(1,0)	(1,0)	(1,0)	(1,0)	(1,0)	(1,0)	(1,0)	(1,0)	(1,0)	(1,0)	(1,0)	(1,0)	(1,0)	(1,0)	(1,0)	(1,0)	
L1D -505>	(1,0)	(1,0)	(1,0)	(1,0)	(1,0)	(1,0)	(1,0)	(1,0)	(1,0)	(1,0)	(1,0)	(1,0)	(1,0)	(1,0)	(1,0)	(1,0)	
L1D -504>	(1,0)	(1,0)	(1,0)	(1,0)	(1,0)	(1,0)	(1,0)	(1,0)	(1,0)	(1,0)	(1,0)	(1,0)	(1,0)	(1,0)	(1,0)	(1,0)	
L1D -503>	(1,0)	(1,0)	(1,0)	(1,0)	(1,0)	(1,0)	(1,0)	(1,0)	(1,0)	(1,0)	(1,0)	(1,0)	(1,0)	(1,0)	(1,0)	(1,0)	
L1D -502>	(1,0)	(1,0)	(1,0)	(1,0)	(1,0)	(1,0)	(1,0)	(1,0)	(1,0)	(1,0)	(1,0)	(1,0)	(1,0)	(1,0)	(1,0)	(1,0)	
L1D -501>	(1,0)	(1,0)	(1,0)	(1,0)	(1,0)	(1,0)	(1,0)	(1,0)	(1,0)	(1,0)	(1,0)	(1,0)	(1,0)	(1,0)	(1,0)	(1,0)	
L1D -500>	(1,0)	(1,0)	(1,0)	(1,0)	(1,0)	(1,0)	(1,0)	(1,0)	(1,0)	(1,0)	(1,0)	(1,0)	(1,0)	(1,0)	(1,0)	(1,0)	
L1D -499>	(1,0)	(1,0)	(1,0)	(1,0)	(1,0)	(1,0)	(1,0)	(1,0)	(1,0)	(1,0)	(1,0)	(1,0)	(1,0)	(1,0)	(1,0)	(1,0)	
L1D -498>	(1,0)	(1,0)	(1,0)	(1,0)	(1,0)	(1,0)	(1,0)	(1,0)	(1,0)	(1,0)	(1,0)	(1,0)	(1,0)	(1,0)	(1,0)	(1,0)	
L1D -497>	(1,0)	(1,0)	(1,0)	(1,0)	(1,0)	(1,0)	(1,0)	(1,0)	(1,0)	(1,0)	(1,0)	(1,0)	(1,0)	(1,0)	(1,0)	(1,0)	
L1D -496>	(1,0)	(1,0)	(1,0)	(1,0)	(1,0)	(1,0)	(1,0)	(1,0)	(1,0)	(1,0)	(1,0)	(1,0)	(1,0)	(1,0)	(1,0)	(1,0)	
L1D -495>	(1,0)	(1,0)	(1,0)	(1,0)	(1,0)	(1,0)	(1,0)	(1,0)	(1,0)	(1,0)	(1,0)	(1,0)	(1,0)	(1,0)	(1,0)	(1,0)	
L1D -494>	(1,0)	(1,0)	(1,0)	(1,0)	(1,0)	(1,0)	(1,0)	(1,0)	(1,0)	(1,0)	(1,0)	(1,0)	(1,0)	(1,0)	(1,0)	(1,0)	
L1D -493>	(1,0)	(1,0)	(1,0)	(1,0)	(1,0)	(1,0)	(1,0)	(1,0)	(1,0)	(1,0)	(1,0)	(1,0)	(1,0)	(1,0)	(1,0)	(1,0)	
L1D -492>	(1,0)	(1,0)	(1,0)	(1,0)	(1,0)	(1,0)	(1,0)	(1,0)	(1,0)	(1,0)	(1,0)	(1,0)	(1,0)	(1,0)	(1,0)	(1,0)	
L1D -491>	(1,0)	(1,0)	(1,0)	(1,0)	(1,0)	(1,0)	(1,0)	(1,0)	(1,0)	(1,0)	(1,0)	(1,0)	(1,0)	(1,0)	(1,0)	(1,0)	
L1D -490>	(1,0)	(1,0)	(1,0)	(1,0)	(1,0)	(1,0)	(1,0)	(1,0)	(1,0)	(1,0)	(1,0)	(1,0)	(1,0)	(1,0)	(1,0)	(1,0)	
L1D -489>	(1,0)	(1,0)	(1,0)	(1,0)	(1,0)	(1,0)	(1,0)	(1,0)	(1,0)	(1,0)	(1,0)	(1,0)	(1,0)	(1,0)	(1,0)	(1,0)	
L1D -488>	(1,0)	(1,0)	(1,0)	(1,0)	(1,0)	(1,0)	(1,0)	(1,0)	(1,0)	(1,0)	(1,0)	(1,0)	(1,0)	(1,0)	(1,0)	(1,0)	
L1D -487>	(1,0)	(1,0)	(1,0)	(1,0)	(1,0)	(1,0)	(1,0)	(1,0)	(1,0)	(1,0)	(1,0)	(1,0)	(1,0)	(1,0)	(1,0)	(1,0)	
L1D -486>	(84,1)	(1,0)	(1,0)	(1,0)	(1,0)	(1,0)	(1,0)	(1,0)	(1,0)	(1,0)	(1,0)	(1,0)	(1,0)	(1,0)	(1,0)	(1,0)	
L1D -485>	(1,0)	(1,0)	(1,0)	(1,0)	(1,0)	(1,0)	(1,0)	(1,0)	(1,0)	(1,0)	(1,0)	(1,0)	(1,0)	(1,0)	(1,0)	(1,0)	
L1D -484>	(1,0)	(1,0)	(1,0)	(1,0)	(1,0)	(1,0)	(1,0)	(1,0)	(1,0)	(1,0)	(1,0)	(1,0)	(1,0)	(1,0)	(1,0)	(1,0)	
L1D -483>	(98,1)	(1,0)	(1,0)	(1,0)	(1,0)	(1,0)	(1,0)	(1,0)	(1,0)	(1,0)	(1,0)	(1,0)	(1,0)	(1,0)	(1,0)	(1,0)	
L1D -482>	(1,0)	(1,0)	(1,0)	(1,0)	(1,0)	(1,0)	(1,0)	(1,0)	(1,0)	(1,0)	(1,0)	(1,0)	(1,0)	(1,0)	(1,0)	(1,0)	
L1D -481>	(97,1)	(1,0)	(1,0)	(1,0)	(1,0)	(1,0)	(1,0)	(1,0)	(1,0)	(1,0)	(1,0)	(1,0)	(1,0)	(1,0)	(1,0)	(1,0)	
L1D -480>	(1,0)	(1,0)	(1,0)	(1,0)	(1,0)	(1,0)	(1,0)	(1,0)	(1,0)	(1,0)	(1,0)	(1,0)	(1,0)	(1,0)	(1,0)	(1,0)	
L1D -479>	(1,0)	(1,0)	(1,0)	(1,0)	(1,0)	(1,0)	(1,0)	(1,0)	(1,0)	(1,0)	(1,0)	(1,0)	(1,0)	(1,0)	(1,0)	(1,0)	
L1D -478>	(1,0)	(1,0)	(1,0)	(1,0)	(1,0)	(1,0)	(1,0)	(1,0)	(1,0)	(1,0)	(1,0)	(1,0)	(1,0)	(1,0)	(1,0)	(1,0)	
L1D -477>	(1,0)	(1,0)	(1,0)	(1,0)	(1,0)	(1,0)	(1,0)	(1,0)	(1,0)	(1,0)	(1,0)	(1,0)	(1,0)	(1,0)	(1,0)	(1,0)	
L1D -476>	(1,0)	(1,0)	(1,0)	(1,0)	(1,0)	(1,0)	(1,0)	(1,0)	(1,0)	(1,0)	(1,0)	(1,0)	(1,0)	(1,0)	(1,0)	(1,0)	
L1D -475>	(1,0)	(1,0)	(1,0)	(1,0)	(1,0)	(1,0)	(1,0)	(1,0)	(1,0)	(1,0)	(1,0)	(1,0)	(1,0)	(1,0)	(1,0)	(1,0)	
L1D -474>	(1,0)	(1,0)	(1,0)	(1,0)	(1,0)	(1,0)	(1,0)	(1,0)	(1,0)	(1,0)	(1,0)	(1,0)	(1,0)	(1,0)	(1,0)	(1,0)	
L1D -473>	(1,0)	(1,0)	(1,0)	(1,0)	(1,0)	(1,0)	(1,0)	(1,0)	(1,0)	(1,0)	(1,0)	(1,0)	(1,0)	(1,0)	(1,0)	(1,0)	
L1D -472>	(1,0)	(1,0)	(1,0)	(1,0)	(1,0)	(1,0)	(1,0)	(1,0)	(1,0)	(1,0)	(1,0)	(1,0)	(1,0)	(1,0)	(1,0)	(1,0)	
L1D -471>	(1,0)	(1,0)	(1,0)	(1,0)	(1,0)	(1,0)	(1,0)	(1,0)	(1,0)	(1,0)	(1,0)	(1,0)	(1,0)	(1,0)	(1,0)	(1,0)	
L1D -470>	(1,0)	(1,0)	(1,0)	(1,0)	(1,0)	(1,0)	(1,0)	(1,0)	(1,0)	(1,0)	(1,0)	(1,0)	(1,0)	(1,0)	(1,0)	(1,0)	
L1D -469>	(1,0)	(1,0)	(1,0)	(1,0)	(1,0)	(1,0)	(1,0)	(1,0)	(1,0)	(1,0)	(1,0)	(1,0)	(1,0)	(1,0)	(1,0)	(1,0)	
L1D -468>	(1,0)	(1,0)	(1,0)	(1,0)	(1,0)	(1,0)	(1,0)	(1,0)	(1,0)	(1,0)	(1,0)	(1,0)	(1,0)	(1,0)	(1,0)	(1,0)	
L1D -467>	(1,0)	(1,0)	(1,0)	(1,0)	(1,0)	(1,0)	(1,0)	(1,0)	(1,0)	(1,0)	(1,0)	(1,0)	(1,0)	(1,0)	(1,0)	(1,0)	
L1D -466>	(1,0)	(1,0)	(1,0)	(1,0)	(1,0)	(1,0)	(1,0)	(1,0)	(1,0)	(1,0)	(1,0)	(1,0)	(1,0)	(1,0)	(1,0)	(1,0)	
L1D -465>	(1,0)	(1,0)	(1,0)	(1,0)	(1,0)	(1,0)	(1,0)	(1,0)	(1,0)	(1,0)	(1,0)	(1,0)	(1,0)	(1,0)	(1,0)	(1,0)	
L1D -464>	(1,0)	(1,0)	(1,0)	(1,0)	(1,0)	(1,0)	(1,0)	(1,0)	(1,0)	(1,0)	(1,0)	(1,0)	(1,0)	(1,0)	(1,0)	(1,0)	
L1D -463>	(1,0)	(1,0)	(1,0)	(1,0)	(1,0)	(1,0)	(1,0)	(1,0)	(1,0)	(1,0)	(1,0)	(1,0)	(1,0)	(1,0)	(1,0)	(1,0)	
L1D -462>	(1,0)	(1,0)	(1,0)	(1,0)	(1,0)	(1,0)	(1,0)	(1,0)	(1,0)	(1,0)	(1,0)	(1,0)	(1,0)	(1,0)	(1,0)	(1,0)	
L1D -461>	(1,0)	(1,0)	(1,0)	(1,0)	(1,0)	(1,0)	(1,0)	(1,0)	(1,0)	(1,0)	(1,0)	(1,0)	(1,0)	(1,0)	(1,0)	(1,0)	
L1D -460>	(1,0)	(1,0)	(1,0)	(1,0)	(1,0)	(1,0)	(1,0)	(1,0)	(1,0)	(1,0)	(1,0)	(1,0)	(1,0)	(1,0)	(1,0)	(1,0)	
L1D -459>	(1,0)	(1,0)	(1,0)	(1,0)	(1,0)	(1,0)	(1,0)	(1,0)	(1,0)	(1,0)	(1,0)	(1,0)	(1,0)	(1,0)	(1,0)	(1,0)	
L1D -458>	(1,0)	(1,0)	(1,0)	(1,0)	(1,0)	(1,0)	(1,0)	(1,0)	(1,0)	(1,0)	(1,0)	(1,0)	(1,0)	(1,0)	(1,0)	(1,0)	
L1D -457>	(1,0)	(1,0)	(1,0)	(1,0)	(1,0)	(1,0)	(1,0)	(1,0)	(1,0)	(1,0)	(1,0)	(1,0)	(1,0)	(1,0)	(1,0)	(1,0)	
L1D -456>	(1,0)	(1,0)	(1,0)	(1,0)	(1,0)	(1,0)	(1,0)	(1,0)	(1,0)	(1,0)	(1,0)	(1,0)	(1,0)	(1,0)	(1,0)	(1,0)	
L1D -455>	(1,0)	(1,0)	(1,0)	(1,0)	(1,0)	(1,0)	(1,0)	(1,0)	(1,0)	(1,0)	(1,0)	(1,0)	(1,0)	(1,0)	(1,0)	(1,0)	
L1D -454>	(1,0)	(1,0)	(1,0)	(1,0)	(1,0)	(1,0)	(1,0)	(1,0)	(1,0)	(1,0)	(1,0)	(1,0)	(1,0)	(1,0)	(1,0)	(1,0)	
L1D -453>	(1,0)	(1,0)	(1,0)	(1,0)	(1,0)	(1,0)	(1,0)	(1,0)	(1,0)	(1,0)	(1,0)	(1,0)	(1,0)	(1,0)	(1,0)	(1,0)	
L1D -452>	(1,0)	(1,0)	(1,0)	(1,0)	(1,0)	(1,0)	(1,0)	(1,0)	(1,0)	(1,0)	(1,0)	(1,0)	(1,0)	(1,0)	(1,0)	(1,0)	
L1D -451>	(1,0)	(1,0)	(1,0)	(1,0)	(1,0)	(1,0)	(1,0)	(1,0)	(1,0)	(1,0)	(1,0)	(1,0)	(1,0)	(1,0)	(1,0)	(1,0)	
L1D -450>	(62,1)	(1,0)	(1,0)	(1,0)	(1,0)	(1,0)	(1,0)	(1,0)	(1,0)	(1,0)	(1,0)	(1,0)	(1,0)	(1,0)	(1,0)	(1,0)	
L1D -449>	(1,0)	(1,0)	(1,0)	(1,0)	(1,0)	(1,0)	(1,0)	(1,0)	(1,0)	(1,0)	(1,0)	(1,0)	(1,0)	(1,0)	(1,0)	(1,0)	
L1D -448>	(1,0)	(1,0)	(1,0)	(1,0)	(1,0)	(1,0)	(1,0)	(1,0)	(1,0)	(1,0)	(1,0)	(1,0)	(1,0)	(1,0)	(1,0)	(1,0)	
L1D -447>	(1,0)	(1,0)	(1,0)	(1,0)	(1,0)	(1,0)	(1,0)	(1,0)	(1,0)	(1,0)	(1,0)	(1,0)	(1,0)	(1,0)	(1,0)	(1,0)	
L1D -446>	(1,0)	(1,0)	(1,0)	(1,0)	(1,0)	(1,0)	(1,0)	(1,0)	(1,0)	(1,0)	(1,0)	(1,0)	(1,0)	(1,0)	(1,0)	(1,0)	
L1D -445>	(1,0)	(1,0)	(1,0)	(1,0)	(1,0)	(1,0)	(1,0)	(1,0)	(1,0)	(1,0)	(1,0)	(1,0)	(1,0)	(1,0)	(1,0)	(1,0)	
L1D -444>	(1,0)	(1,0)	(1,0)	(1,0)	(1,0)	(1,0)	(1,0)	(1,0)	(1,0)	(1,0)	(1,0)	(1,0)	(1,0)	(1,0)	(1,0)	(1,0)	
L1D -443>	(1,0)	(1,0)	(1,0)	(1,0)	(1,0)	(1,0)	(1,0)	(1,0)	(1,0)	(1,0)	(1,0)	(1,0)	(1,0)	(1,0)	(1,0)	(1,0)	
L1D -442>	(1,0)	(1,0)	(1,0)	(1,0)	(1,0)	(1,0)	(1,0)	(1,0)	(1,0)	(1,0)	(1,0)	(1,0)	(1,0)	(1,0)	(1,0)	(1,0)	
L1D -441>	(1,0)	(1,0)	(1,0)	(1,0)	(1,0)	(1,0)	(1,0)	(1,0)	(1,0)	(1,0)	(1,0)	(1,0)	(1,0)	(1,0)	(1,0)	(1,0)	
L1D -440>	(230,6)	(206,4)	(118,1)	(1,0)	(1,0)	(1,0)	(1,0)	(1,0)	(1,0)	(1,0)	(1,0)	(1,0)	(1,0)	(1,0)	(1,0)	(1,0)	
L1D -439>	(1,0)	(1,0)	(1,0)	(1,0)	(1,0)	(1,0)	(1,0)	(1,0)	(1,0)	(1,0)	(1,0)	(1,0)	(1,0)	(1,0)	(1,0)	(1,0)	
L1D -438>	(1,0)	(1,0)	(1,0)	(1,0)	(1,0)	(1,0)	(1,0)	(1,0)	(1,0)	(1,0)	(1,0)	(1,0)	(1,0)	(1,0)	(1,0)	(1,0)	
L1D -437>	(1,0)	(1,0)	(1,0)	(1,0)	(1,0)	(1,0)	(1,0)	(1,0)	(1,0)	(1,0)	(1,0)	(1,0)	(1,0)	(1,0)	(1,0)	(1,0)	
L1D -436>	(1,0)	(1,0)	(1,0)	(1,0)	(1,0)	(1,0)	(1,0)	(1,0)	(1,0)	(1,0)	(1,0)	(1,0)	(1,0)	(1,0)	(1,0)	(1,0)	
L1D -435>	(1,0)	(1,0)	(1,0)	(1,0)	(1,0)	(1,0)	(1,0)	(1,0)	(1,0)	(1,0)	(1,0)	(1,0)	(1,0)	(1,0)	(1,0)	(1,0)	
L1D -434>	(1,0)	(1,0)	(1,0)	(1,0)	(1,0)	(1,0)	(1,0)	(1,0)	(1,0)	(1,0)	(1,0)	(1,0)	(1,0)	(1,0)	(1,0)	(1,0)	
L1D -433>	(1,0)	(1,0)	(1,0)	(1,0)	(1,0)	(1,0)	(1,0)	(1,0)	(1,0)	(1,0)	(1,0)	(1,0)	(1,0)	(1,0)	(1,0)	(1,0)	
L1D -432>	(430,15)	(34,48)	(2,2)	(18,59)	(1,0)	(1,0)	(1,0)	(1,0)	(1,0)	(1,0)	(1,0)	(1,0)	(1,0)	(1,0)	(1,0)	(1,0)	
L1D -431>	(1,0)	(1,0)	(1,0)	(1,0)	(1,0)	(1,0)	(1,0)	(1,0)	(1,0)	(1,0)	(1,0)	(1,0)	(1,0)	(1,0)	(1,0)	(1,0)	
L1D -430>	(200,3)	(198,83)	(138,20)	(1,0)	(1,0)	(1,0)	(1,0)	(1,0)	(1,0)	(1,0)	(1,0)	(1,0)	(1,0)	(1,0)	(1,0)	(1,0)	
L1D -429>	(1,0)	(1,0)	(1,0)	(1,0)	(1,0)	(1,0)	(1,0)	(1,0)	(1,0)	(1,0)	(1,0)	(1,0)	(1,0)	(1,0)	(1,0)	(1,0)	
L1D -428>	(198,20)	(-48,1)	(1,0)	(1,0)	(1,0)	(1,0)	(1,0)	(1,0)	(1,0)	(1,0)	(1,0)	(1,0)	(1,0)	(1,0)	(1,0)	(1,0)	
L1D -427>	(1,0)	(1,0)	(1,0)	(1,0)	(1,0)	(1,0)	(1,0)	(1,0)	(1,0)	(1,0)	(1,0)	(1,0)	(1,0)	(1,0)	(1,0)	(1,0)	
L1D -426>	(1,0)	(1,0)	(1,0)	(1,0)	(1,0)	(1,0)	(1,0)	(1,0)	(1,0)	(1,0)	(1,0)	(1,0)	(1,0)	(1,0)	(1,0)	(1,0)	
L1D -425>	(1,0)	(1,0)	(1,0)	(1,0)	(1,0)	(1,0)	(1,0)	(1,0)	(1,0)	(1,0)	(1,0)	(1,0)	(1,0)	(1,0)	(1,0)	(1,0)	
L1D -424>	(1,0)	(1,0)	(1,0)	(1,0)	(1,0)	(1,0)	(1,0)	(1,0)	(1,0)	(1,0)	(1,0)	(1,0)	(1,0)	(1,0)	(1,0)	(1,0)	
L1D -423>	(1,0)	(1,0)	(1,0)	(1,0)	(1,0)	(1,0)	(1,0)	(1,0)	(1,0)	(1,0)	(1,0)	(1,0)	(1,0)	(1,0)	(1,0)	(1,0)	
L1D -422>	(1,0)	(1,0)	(1,0)	(1,0)	(1,0)	(1,0)	(1,0)	(1,0)	(1,0)	(1,0)	(1,0)	(1,0)	(1,0)	(1,0)	(1,0)	(1,0)	
L1D -421>	(1,0)	(1,0)	(1,0)	(1,0)	(1,0)	(1,0)	(1,0)	(1,0)	(1,0)	(1,0)	(1,0)	(1,0)	(1,0)	(1,0)	(1,0)	(1,0)	
L1D -420>	(1,0)	(1,0)	(1,0)	(1,0)	(1,0)	(1,0)	(1,0)	(1,0)	(1,0)	(1,0)	(1,0)	(1,0)	(1,0)	(1,0)	(1,0)	(1,0)	
L1D -419>	(1,0)	(1,0)	(1,0)	(1,0)	(1,0)	(1,0)	(1,0)	(1,0)	(1,0)	(1,0)	(1,0)	(1,0)	(1,0)	(1,0)	(1,0)	(1,0)	
L1D -418>	(1,0)	(1,0)	(1,0)	(1,0)	(1,0)	(1,0)	(1,0)	(1,0)	(1,0)	(1,0)	(1,0)	(1,0)	(1,0)	(1,0)	(1,0)	(1,0)	
L1D -417>	(1,0)	(1,0)	(1,0)	(1,0)	(1,0)	(1,0)	(1,0)	(1,0)	(1,0)	(1,0)	(1,0)	(1,0)	(1,0)	(1,0)	(1,0)	(1,0)	
L1D -416>	(74,2)	(1,0)	(1,0)	(1,0)	(1,0)	(1,0)	(1,0)	(1,0)	(1,0)	(1,0)	(1,0)	(1,0)	(1,0)	(1,0)	(1,0)	(1,0)	
L1D -415>	(1,0)	(1,0)	(1,0)	(1,0)	(1,0)	(1,0)	(1,0)	(1,0)	(1,0)	(1,0)	(1,0)	(1,0)	(1,0)	(1,0)	(1,0)	(1,0)	
L1D -414>	(98,109)	(6,0)	(-18,0)	(16,0)	(184,0)	(1,0)	(1,0)	(1,0)	(1,0)	(1,0)	(1,0)	(1,0)	(1,0)	(1,0)	(1,0)	(1,0)	
L1D -413>	(1,0)	(1,0)	(1,0)	(1,0)	(1,0)	(1,0)	(1,0)	(1,0)	(1,0)	(1,0)	(1,0)	(1,0)	(1,0)	(1,0)	(1,0)	(1,0)	
L1D -412>	(1,0)	(1,0)	(1,0)	(1,0)	(1,0)	(1,0)	(1,0)	(1,0)	(1,0)	(1,0)	(1,0)	(1,0)	(1,0)	(1,0)	(1,0)	(1,0)	
L1D -411>	(1,0)	(1,0)	(1,0)	(1,0)	(1,0)	(1,0)	(1,0)	(1,0)	(1,0)	(1,0)	(1,0)	(1,0)	(1,0)	(1,0)	(1,0)	(1,0)	
L1D -410>	(1,0)	(1,0)	(1,0)	(1,0)	(1,0)	(1,0)	(1,0)	(1,0)	(1,0)	(1,0)	(1,0)	(1,0)	(1,0)	(1,0)	(1,0)	(1,0)	
L1D -409>	(1,0)	(1,0)	(1,0)	(1,0)	(1,0)	(1,0)	(1,0)	(1,0)	(1,0)	(1,0)	(1,0)	(1,0)	(1,0)	(1,0)	(1,0)	(1,0)	
L1D -408>	(1,0)	(1,0)	(1,0)	(1,0)	(1,0)	(1,0)	(1,0)	(1,0)	(1,0)	(1,0)	(1,0)	(1,0)	(1,0)	(1,0)	(1,0)	(1,0)	
L1D -407>	(1,0)	(1,0)	(1,0)	(1,0)	(1,0)	(1,0)	(1,0)	(1,0)	(1,0)	(1,0)	(1,0)	(1,0)	(1,0)	(1,0)	(1,0)	(1,0)	
L1D -406>	(1,0)	(1,0)	(1,0)	(1,0)	(1,0)	(1,0)	(1,0)	(1,0)	(1,0)	(1,0)	(1,0)	(1,0)	(1,0)	(1,0)	(1,0)	(1,0)	
L1D -405>	(1,0)	(1,0)	(1,0)	(1,0)	(1,0)	(1,0)	(1,0)	(1,0)	(1,0)	(1,0)	(1,0)	(1,0)	(1,0)	(1,0)	(1,0)	(1,0)	
L1D -404>	(1,0)	(1,0)	(1,0)	(1,0)	(1,0)	(1,0)	(1,0)	(1,0)	(1,0)	(1,0)	(1,0)	(1,0)	(1,0)	(1,0)	(1,0)	(1,0)	
L1D -403>	(1,0)	(1,0)	(1,0)	(1,0)	(1,0)	(1,0)	(1,0)	(1,0)	(1,0)	(1,0)	(1,0)	(1,0)	(1,0)	(1,0)	(1,0)	(1,0)	
L1D -402>	(274,75)	(-42,1)	(1,0)	(1,0)	(1,0)	(1,0)	(1,0)	(1,0)	(1,0)	(1,0)	(1,0)	(1,0)	(1,0)	(1,0)	(1,0)	(1,0)	
L1D -401>	(1,0)	(1,0)	(1,0)	(1,0)	(1,0)	(1,0)	(1,0)	(1,0)	(1,0)	(1,0)	(1,0)	(1,0)	(1,0)	(1,0)	(1,0)	(1,0)	
L1D -400>	(1,0)	(1,0)	(1,0)	(1,0)	(1,0)	(1,0)	(1,0)	(1,0)	(1,0)	(1,0)	(1,0)	(1,0)	(1,0)	(1,0)	(1,0)	(1,0)	
L1D -399>	(1,0)	(1,0)	(1,0)	(1,0)	(1,0)	(1,0)	(1,0)	(1,0)	(1,0)	(1,0)	(1,0)	(1,0)	(1,0)	(1,0)	(1,0)	(1,0)	
L1D -398>	(-16,124)	(74,7)	(82,22)	(1,0)	(1,0)	(1,0)	(1,0)	(1,0)	(1,0)	(1,0)	(1,0)	(1,0)	(1,0)	(1,0)	(1,0)	(1,0)	
L1D -397>	(1,0)	(1,0)	(1,0)	(1,0)	(1,0)	(1,0)	(1,0)	(1,0)	(1,0)	(1,0)	(1,0)	(1,0)	(1,0)	(1,0)	(1,0)	(1,0)	
L1D -396>	(1,0)	(1,0)	(1,0)	(1,0)	(1,0)	(1,0)	(1,0)	(1,0)	(1,0)	(1,0)	(1,0)	(1,0)	(1,0)	(1,0)	(1,0)	(1,0)	
L1D -395>	(1,0)	(1,0)	(1,0)	(1,0)	(1,0)	(1,0)	(1,0)	(1,0)	(1,0)	(1,0)	(1,0)	(1,0)	(1,0)	(1,0)	(1,0)	(1,0)	
L1D -394>	(202,6)	(1,0)	(1,0)	(1,0)	(1,0)	(1,0)	(1,0)	(1,0)	(1,0)	(1,0)	(1,0)	(1,0)	(1,0)	(1,0)	(1,0)	(1,0)	
L1D -393>	(1,0)	(1,0)	(1,0)	(1,0)	(1,0)	(1,0)	(1,0)	(1,0)	(1,0)	(1,0)	(1,0)	(1,0)	(1,0)	(1,0)	(1,0)	(1,0)	
L1D -392>	(1,0)	(1,0)	(1,0)	(1,0)	(1,0)	(1,0)	(1,0)	(1,0)	(1,0)	(1,0)	(1,0)	(1,0)	(1,0)	(1,0)	(1,0)	(1,0)	
L1D -391>	(1,0)	(1,0)	(1,0)	(1,0)	(1,0)	(1,0)	(1,0)	(1,0)	(1,0)	(1,0)	(1,0)	(1,0)	(1,0)	(1,0)	(1,0)	(1,0)	
L1D -390>	(390,1)	(1,0)	(1,0)	(1,0)	(1,0)	(1,0)	(1,0)	(1,0)	(1,0)	(1,0)	(1,0)	(1,0)	(1,0)	(1,0)	(1,0)	(1,0)	
L1D -389>	(1,4)	(388,8)	(1,0)	(1,0)	(1,0)	(1,0)	(1,0)	(1,0)	(1,0)	(1,0)	(1,0)	(1,0)	(1,0)	(1,0)	(1,0)	(1,0)	
L1D -388>	(12,95)	(1,10)	(-1,3)	(388,64)	(389,5)	(387,3)	(1,0)	(1,0)	(1,0)	(1,0)	(1,0)	(1,0)	(1,0)	(1,0)	(1,0)	(1,0)	
L1D -387>	(-1,8)	(1,1)	(387,69)	(388,8)	(1,0)	(1,0)	(1,0)	(1,0)	(1,0)	(1,0)	(1,0)	(1,0)	(1,0)	(1,0)	(1,0)	(1,0)	
L1D -386>	(386,3)	(387,1)	(1,0)	(1,0)	(1,0)	(1,0)	(1,0)	(1,0)	(1,0)	(1,0)	(1,0)	(1,0)	(1,0)	(1,0)	(1,0)	(1,0)	
L1D -385>	(1,5)	(384,3)	(-1,1)	(385,2)	(1,0)	(1,0)	(1,0)	(1,0)	(1,0)	(1,0)	(1,0)	(1,0)	(1,0)	(1,0)	(1,0)	(1,0)	
L1D -384>	(1,11)	(-1,2)	(384,60)	(383,9)	(385,6)	(30,3)	(1,0)	(1,0)	(1,0)	(1,0)	(1,0)	(1,0)	(1,0)	(1,0)	(1,0)	(1,0)	
L1D -383>	(-1,11)	(384,7)	(383,67)	(1,0)	(1,0)	(1,0)	(1,0)	(1,0)	(1,0)	(1,0)	(1,0)	(1,0)	(1,0)	(1,0)	(1,0)	(1,0)	
L1D -382>	(348,22)	(382,1)	(358,1)	(1,1)	(1,0)	(1,0)	(1,0)	(1,0)	(1,0)	(1,0)	(1,0)	(1,0)	(1,0)	(1,0)	(1,0)	(1,0)	
L1D -381>	(381,1)	(1,0)	(1,0)	(1,0)	(1,0)	(1,0)	(1,0)	(1,0)	(1,0)	(1,0)	(1,0)	(1,0)	(1,0)	(1,0)	(1,0)	(1,0)	
L1D -380>	(348,75)	(78,0)	(382,1)	(1,0)	(1,0)	(1,0)	(1,0)	(1,0)	(1,0)	(1,0)	(1,0)	(1,0)	(1,0)	(1,0)	(1,0)	(1,0)	
L1D -379>	(379,1)	(1,0)	(1,0)	(1,0)	(1,0)	(1,0)	(1,0)	(1,0)	(1,0)	(1,0)	(1,0)	(1,0)	(1,0)	(1,0)	(1,0)	(1,0)	
L1D -378>	(1,0)	(1,0)	(1,0)	(1,0)	(1,0)	(1,0)	(1,0)	(1,0)	(1,0)	(1,0)	(1,0)	(1,0)	(1,0)	(1,0)	(1,0)	(1,0)	
L1D -377>	(1,0)	(1,0)	(1,0)	(1,0)	(1,0)	(1,0)	(1,0)	(1,0)	(1,0)	(1,0)	(1,0)	(1,0)	(1,0)	(1,0)	(1,0)	(1,0)	
L1D -376>	(52,5)	(48,10)	(-12,1)	(1,0)	(1,0)	(1,0)	(1,0)	(1,0)	(1,0)	(1,0)	(1,0)	(1,0)	(1,0)	(1,0)	(1,0)	(1,0)	
L1D -375>	(1,0)	(1,0)	(1,0)	(1,0)	(1,0)	(1,0)	(1,0)	(1,0)	(1,0)	(1,0)	(1,0)	(1,0)	(1,0)	(1,0)	(1,0)	(1,0)	
L1D -374>	(72,4)	(1,0)	(1,0)	(1,0)	(1,0)	(1,0)	(1,0)	(1,0)	(1,0)	(1,0)	(1,0)	(1,0)	(1,0)	(1,0)	(1,0)	(1,0)	
L1D -373>	(1,0)	(1,0)	(1,0)	(1,0)	(1,0)	(1,0)	(1,0)	(1,0)	(1,0)	(1,0)	(1,0)	(1,0)	(1,0)	(1,0)	(1,0)	(1,0)	
L1D -372>	(60,40)	(12,5)	(372,1)	(1,0)	(1,0)	(1,0)	(1,0)	(1,0)	(1,0)	(1,0)	(1,0)	(1,0)	(1,0)	(1,0)	(1,0)	(1,0)	
L1D -371>	(371,1)	(1,0)	(1,0)	(1,0)	(1,0)	(1,0)	(1,0)	(1,0)	(1,0)	(1,0)	(1,0)	(1,0)	(1,0)	(1,0)	(1,0)	(1,0)	
L1D -370>	(90,30)	(62,1)	(1,0)	(1,0)	(1,0)	(1,0)	(1,0)	(1,0)	(1,0)	(1,0)	(1,0)	(1,0)	(1,0)	(1,0)	(1,0)	(1,0)	
L1D -369>	(1,0)	(1,0)	(1,0)	(1,0)	(1,0)	(1,0)	(1,0)	(1,0)	(1,0)	(1,0)	(1,0)	(1,0)	(1,0)	(1,0)	(1,0)	(1,0)	
L1D -368>	(54,42)	(48,11)	(90,3)	(52,3)	(50,3)	(62,1)	(1,0)	(1,0)	(1,0)	(1,0)	(1,0)	(1,0)	(1,0)	(1,0)	(1,0)	(1,0)	
L1D -367>	(367,1)	(1,0)	(1,0)	(1,0)	(1,0)	(1,0)	(1,0)	(1,0)	(1,0)	(1,0)	(1,0)	(1,0)	(1,0)	(1,0)	(1,0)	(1,0)	
L1D -366>	(366,1)	(1,0)	(1,0)	(1,0)	(1,0)	(1,0)	(1,0)	(1,0)	(1,0)	(1,0)	(1,0)	(1,0)	(1,0)	(1,0)	(1,0)	(1,0)	
L1D -365>	(1,5)	(364,10)	(-1,2)	(366,1)	(365,2)	(1,0)	(1,0)	(1,0)	(1,0)	(1,0)	(1,0)	(1,0)	(1,0)	(1,0)	(1,0)	(1,0)	
L1D -364>	(364,20)	(1,2)	(66,0)	(314,77)	(370,7)	(90,122)	(88,3)	(62,5)	(365,1)	(363,0)	(1,0)	(1,0)	(1,0)	(1,0)	(1,0)	(1,0)	
L1D -363>	(-1,10)	(363,74)	(364,6)	(1,0)	(1,0)	(1,0)	(1,0)	(1,0)	(1,0)	(1,0)	(1,0)	(1,0)	(1,0)	(1,0)	(1,0)	(1,0)	
L1D -362>	(348,17)	(78,21)	(76,1)	(12,1)	(1,0)	(1,0)	(1,0)	(1,0)	(1,0)	(1,0)	(1,0)	(1,0)	(1,0)	(1,0)	(1,0)	(1,0)	
L1D -361>	(1,0)	(1,0)	(1,0)	(1,0)	(1,0)	(1,0)	(1,0)	(1,0)	(1,0)	(1,0)	(1,0)	(1,0)	(1,0)	(1,0)	(1,0)	(1,0)	
L1D -360>	(10,58)	(48,1)	(1,0)	(1,0)	(1,0)	(1,0)	(1,0)	(1,0)	(1,0)	(1,0)	(1,0)	(1,0)	(1,0)	(1,0)	(1,0)	(1,0)	
L1D -359>	(1,6)	(358,7)	(1,0)	(1,0)	(1,0)	(1,0)	(1,0)	(1,0)	(1,0)	(1,0)	(1,0)	(1,0)	(1,0)	(1,0)	(1,0)	(1,0)	
L1D -358>	(358,65)	(1,12)	(-1,2)	(-14,24)	(359,5)	(357,3)	(1,0)	(1,0)	(1,0)	(1,0)	(1,0)	(1,0)	(1,0)	(1,0)	(1,0)	(1,0)	
L1D -357>	(357,70)	(-1,4)	(358,9)	(1,0)	(1,0)	(1,0)	(1,0)	(1,0)	(1,0)	(1,0)	(1,0)	(1,0)	(1,0)	(1,0)	(1,0)	(1,0)	
L1D -356>	(-2,2)	(1,1)	(-1,1)	(-16,15)	(238,1)	(1,0)	(1,0)	(1,0)	(1,0)	(1,0)	(1,0)	(1,0)	(1,0)	(1,0)	(1,0)	(1,0)	
L1D -355>	(355,2)	(1,0)	(1,0)	(1,0)	(1,0)	(1,0)	(1,0)	(1,0)	(1,0)	(1,0)	(1,0)	(1,0)	(1,0)	(1,0)	(1,0)	(1,0)	
L1D -354>	(-4,7)	(-2,5)	(-18,77)	(354,1)	(1,0)	(1,0)	(1,0)	(1,0)	(1,0)	(1,0)	(1,0)	(1,0)	(1,0)	(1,0)	(1,0)	(1,0)	
L1D -353>	(354,1)	(353,2)	(1,0)	(1,0)	(1,0)	(1,0)	(1,0)	(1,0)	(1,0)	(1,0)	(1,0)	(1,0)	(1,0)	(1,0)	(1,0)	(1,0)	
L1D -352>	(-16,125)	(36,3)	(32,9)	(38,6)	(34,0)	(352,0)	(1,0)	(1,0)	(1,0)	(1,0)	(1,0)	(1,0)	(1,0)	(1,0)	(1,0)	(1,0)	
L1D -351>	(351,1)	(1,0)	(1,0)	(1,0)	(1,0)	(1,0)	(1,0)	(1,0)	(1,0)	(1,0)	(1,0)	(1,0)	(1,0)	(1,0)	(1,0)	(1,0)	
L1D -350>	(90,93)	(370,3)	(-2,0)	(60,0)	(88,2)	(66,0)	(1,0)	(1,0)	(1,0)	(1,0)	(1,0)	(1,0)	(1,0)	(1,0)	(1,0)	(1,0)	
L1D -349>	(1,0)	(1,0)	(1,0)	(1,0)	(1,0)	(1,0)	(1,0)	(1,0)	(1,0)	(1,0)	(1,0)	(1,0)	(1,0)	(1,0)	(1,0)	(1,0)	
L1D -348>	(4,6)	(88,84)	(78,42)	(347,3)	(362,0)	(376,0)	(1,0)	(1,0)	(1,0)	(1,0)	(1,0)	(1,0)	(1,0)	(1,0)	(1,0)	(1,0)	
L1D -347>	(174,13)	(3,12)	(173,1)	(2,34)	(-1,8)	(4,8)	(172,7)	(1,1)	(346,6)	(348,22)	(345,3)	(343,0)	(344,74)	(176,2)	(175,0)	(171,0)	
L1D -346>	(3,5)	(344,0)	(342,103)	(345,99)	(347,1)	(343,17)	(1,20)	(346,0)	(179,0)	(174,10)	(172,1)	(173,1)	(1,0)	(1,0)	(1,0)	(1,0)	
L1D -345>	(173,6)	(342,61)	(3,2)	(344,5)	(171,14)	(169,6)	(172,88)	(345,121)	(346,87)	(2,13)	(1,1)	(347,1)	(-1,0)	(174,0)	(348,1)	(175,0)	
L1D -344>	(-1,26)	(171,93)	(3,1)	(1,13)	(2,7)	(172,48)	(-3,7)	(341,30)	(348,12)	(168,7)	(343,125)	(169,10)	(173,77)	(347,18)	(4,106)	(174,15)	
L1D -343>	(343,1)	(344,1)	(346,3)	(-1,120)	(172,46)	(171,14)	(342,6)	(-2,3)	(2,0)	(345,14)	(1,14)	(169,1)	(-4,1)	(-3,1)	(168,0)	(173,0)	
L1D -342>	(-1,80)	(342,5)	(170,61)	(345,88)	(0,1)	(-4,22)	(346,2)	(171,0)	(340,0)	(168,0)	(343,2)	(169,2)	(344,9)	(173,10)	(-2,1)	(1,1)	
L1D -341>	(342,3)	(172,89)	(170,6)	(171,41)	(0,1)	(-1,99)	(-2,18)	(-4,1)	(169,6)	(343,10)	(168,1)	(345,2)	(173,1)	(1,1)	(1,0)	(1,0)	
L1D -340>	(12,8)	(343,9)	(28,13)	(-2,2)	(168,20)	(169,19)	(172,13)	(171,115)	(-3,0)	(-4,10)	(-1,13)	(-8,0)	(4,15)	(344,14)	(1,0)	(1,0)	
L1D -339>	(170,4)	(339,1)	(344,2)	(1,0)	(1,0)	(1,0)	(1,0)	(1,0)	(1,0)	(1,0)	(1,0)	(1,0)	(1,0)	(1,0)	(1,0)	(1,0)	
L1D -338>	(12,53)	(28,35)	(-4,29)	(4,16)	(-1,3)	(1,1)	(173,1)	(344,2)	(1,0)	(1,0)	(1,0)	(1,0)	(1,0)	(1,0)	(1,0)	(1,0)	
L1D -337>	(-1,53)	(1,8)	(-2,3)	(344,1)	(172,15)	(1,0)	(1,0)	(1,0)	(1,0)	(1,0)	(1,0)	(1,0)	(1,0)	(1,0)	(1,0)	(1,0)	
L1D -336>	(-2,0)	(-12,97)	(90,0)	(-110,0)	(1,0)	(1,0)	(1,0)	(1,0)	(1,0)	(1,0)	(1,0)	(1,0)	(1,0)	(1,0)	(1,0)	(1,0)	
L1D -335>	(-2,4)	(172,19)	(-1,20)	(1,0)	(1,0)	(1,0)	(1,0)	(1,0)	(1,0)	(1,0)	(1,0)	(1,0)	(1,0)	(1,0)	(1,0)	(1,0)	
L1D -334>	(-12,5)	(32,4)	(128,1)	(1,0)	(1,0)	(1,0)	(1,0)	(1,0)	(1,0)	(1,0)	(1,0)	(1,0)	(1,0)	(1,0)	(1,0)	(1,0)	
L1D -333>	(1,1)	(333,1)	(1,0)	(1,0)	(1,0)	(1,0)	(1,0)	(1,0)	(1,0)	(1,0)	(1,0)	(1,0)	(1,0)	(1,0)	(1,0)	(1,0)	
L1D -332>	(332,1)	(1,0)	(1,0)	(1,0)	(1,0)	(1,0)	(1,0)	(1,0)	(1,0)	(1,0)	(1,0)	(1,0)	(1,0)	(1,0)	(1,0)	(1,0)	
L1D -331>	(1,0)	(1,0)	(1,0)	(1,0)	(1,0)	(1,0)	(1,0)	(1,0)	(1,0)	(1,0)	(1,0)	(1,0)	(1,0)	(1,0)	(1,0)	(1,0)	
L1D -330>	(-84,1)	(1,0)	(1,0)	(1,0)	(1,0)	(1,0)	(1,0)	(1,0)	(1,0)	(1,0)	(1,0)	(1,0)	(1,0)	(1,0)	(1,0)	(1,0)	
L1D -329>	(329,4)	(1,0)	(1,0)	(1,0)	(1,0)	(1,0)	(1,0)	(1,0)	(1,0)	(1,0)	(1,0)	(1,0)	(1,0)	(1,0)	(1,0)	(1,0)	
L1D -328>	(30,83)	(384,2)	(-8,10)	(28,4)	(1,0)	(1,0)	(1,0)	(1,0)	(1,0)	(1,0)	(1,0)	(1,0)	(1,0)	(1,0)	(1,0)	(1,0)	
L1D -327>	(327,1)	(1,0)	(1,0)	(1,0)	(1,0)	(1,0)	(1,0)	(1,0)	(1,0)	(1,0)	(1,0)	(1,0)	(1,0)	(1,0)	(1,0)	(1,0)	
L1D -326>	(-2,18)	(-8,6)	(1,0)	(1,0)	(1,0)	(1,0)	(1,0)	(1,0)	(1,0)	(1,0)	(1,0)	(1,0)	(1,0)	(1,0)	(1,0)	(1,0)	
L1D -325>	(1,4)	(324,7)	(325,1)	(-1,1)	(1,0)	(1,0)	(1,0)	(1,0)	(1,0)	(1,0)	(1,0)	(1,0)	(1,0)	(1,0)	(1,0)	(1,0)	
L1D -324>	(-74,4)	(324,68)	(-1,4)	(1,8)	(-4,20)	(323,5)	(325,4)	(1,0)	(1,0)	(1,0)	(1,0)	(1,0)	(1,0)	(1,0)	(1,0)	(1,0)	
L1D -323>	(-1,7)	(323,72)	(324,8)	(1,0)	(1,0)	(1,0)	(1,0)	(1,0)	(1,0)	(1,0)	(1,0)	(1,0)	(1,0)	(1,0)	(1,0)	(1,0)	
L1D -322>	(30,5)	(-66,30)	(90,41)	(1,0)	(1,0)	(1,0)	(1,0)	(1,0)	(1,0)	(1,0)	(1,0)	(1,0)	(1,0)	(1,0)	(1,0)	(1,0)	
L1D -321>	(1,0)	(1,0)	(1,0)	(1,0)	(1,0)	(1,0)	(1,0)	(1,0)	(1,0)	(1,0)	(1,0)	(1,0)	(1,0)	(1,0)	(1,0)	(1,0)	
L1D -320>	(36,103)	(30,2)	(1,0)	(1,0)	(1,0)	(1,0)	(1,0)	(1,0)	(1,0)	(1,0)	(1,0)	(1,0)	(1,0)	(1,0)	(1,0)	(1,0)	
L1D -319>	(1,0)	(1,0)	(1,0)	(1,0)	(1,0)	(1,0)	(1,0)	(1,0)	(1,0)	(1,0)	(1,0)	(1,0)	(1,0)	(1,0)	(1,0)	(1,0)	
L1D -318>	(-2,31)	(318,1)	(1,0)	(1,0)	(1,0)	(1,0)	(1,0)	(1,0)	(1,0)	(1,0)	(1,0)	(1,0)	(1,0)	(1,0)	(1,0)	(1,0)	
L1D -317>	(-1,1)	(317,2)	(1,0)	(1,0)	(1,0)	(1,0)	(1,0)	(1,0)	(1,0)	(1,0)	(1,0)	(1,0)	(1,0)	(1,0)	(1,0)	(1,0)	
L1D -316>	(-4,17)	(102,20)	(316,2)	(1,0)	(1,0)	(1,0)	(1,0)	(1,0)	(1,0)	(1,0)	(1,0)	(1,0)	(1,0)	(1,0)	(1,0)	(1,0)	
L1D -315>	(1,3)	(314,10)	(315,1)	(-1,1)	(1,0)	(1,0)	(1,0)	(1,0)	(1,0)	(1,0)	(1,0)	(1,0)	(1,0)	(1,0)	(1,0)	(1,0)	
L1D -314>	(1,10)	(-1,4)	(314,55)	(-4,1)	(315,7)	(-6,12)	(313,3)	(1,0)	(1,0)	(1,0)	(1,0)	(1,0)	(1,0)	(1,0)	(1,0)	(1,0)	
L1D -313>	(-1,8)	(313,77)	(314,5)	(1,0)	(1,0)	(1,0)	(1,0)	(1,0)	(1,0)	(1,0)	(1,0)	(1,0)	(1,0)	(1,0)	(1,0)	(1,0)	
L1D -312>	(-48,4)	(-16,66)	(311,1)	(1,0)	(1,0)	(1,0)	(1,0)	(1,0)	(1,0)	(1,0)	(1,0)	(1,0)	(1,0)	(1,0)	(1,0)	(1,0)	
L1D -311>	(1,1)	(311,1)	(1,0)	(1,0)	(1,0)	(1,0)	(1,0)	(1,0)	(1,0)	(1,0)	(1,0)	(1,0)	(1,0)	(1,0)	(1,0)	(1,0)	
L1D -310>	(254,33)	(-16,1)	(310,2)	(1,0)	(1,0)	(1,0)	(1,0)	(1,0)	(1,0)	(1,0)	(1,0)	(1,0)	(1,0)	(1,0)	(1,0)	(1,0)	
L1D -309>	(238,86)	(309,0)	(1,0)	(1,0)	(1,0)	(1,0)	(1,0)	(1,0)	(1,0)	(1,0)	(1,0)	(1,0)	(1,0)	(1,0)	(1,0)	(1,0)	
L1D -308>	(149,4)	(-62,41)	(92,3)	(1,0)	(1,0)	(1,0)	(1,0)	(1,0)	(1,0)	(1,0)	(1,0)	(1,0)	(1,0)	(1,0)	(1,0)	(1,0)	
L1D -307>	(307,3)	(308,1)	(1,0)	(1,0)	(1,0)	(1,0)	(1,0)	(1,0)	(1,0)	(1,0)	(1,0)	(1,0)	(1,0)	(1,0)	(1,0)	(1,0)	
L1D -306>	(-74,4)	(1,1)	(274,1)	(1,0)	(1,0)	(1,0)	(1,0)	(1,0)	(1,0)	(1,0)	(1,0)	(1,0)	(1,0)	(1,0)	(1,0)	(1,0)	
L1D -305>	(1,0)	(1,0)	(1,0)	(1,0)	(1,0)	(1,0)	(1,0)	(1,0)	(1,0)	(1,0)	(1,0)	(1,0)	(1,0)	(1,0)	(1,0)	(1,0)	
L1D -304>	(1,1)	(303,1)	(1,0)	(1,0)	(1,0)	(1,0)	(1,0)	(1,0)	(1,0)	(1,0)	(1,0)	(1,0)	(1,0)	(1,0)	(1,0)	(1,0)	
L1D -303>	(1,0)	(1,0)	(1,0)	(1,0)	(1,0)	(1,0)	(1,0)	(1,0)	(1,0)	(1,0)	(1,0)	(1,0)	(1,0)	(1,0)	(1,0)	(1,0)	
L1D -302>	(-62,85)	(-34,16)	(-78,1)	(28,0)	(1,0)	(1,0)	(1,0)	(1,0)	(1,0)	(1,0)	(1,0)	(1,0)	(1,0)	(1,0)	(1,0)	(1,0)	
L1D -301>	(301,1)	(1,0)	(1,0)	(1,0)	(1,0)	(1,0)	(1,0)	(1,0)	(1,0)	(1,0)	(1,0)	(1,0)	(1,0)	(1,0)	(1,0)	(1,0)	
L1D -300>	(-74,29)	(-64,8)	(-76,1)	(1,0)	(1,0)	(1,0)	(1,0)	(1,0)	(1,0)	(1,0)	(1,0)	(1,0)	(1,0)	(1,0)	(1,0)	(1,0)	
L1D -299>	(294,4)	(218,7)	(300,1)	(254,1)	(-1,1)	(1,0)	(1,0)	(1,0)	(1,0)	(1,0)	(1,0)	(1,0)	(1,0)	(1,0)	(1,0)	(1,0)	
L1D -298>	(-30,13)	(-18,3)	(-4,1)	(42,1)	(1,0)	(1,0)	(1,0)	(1,0)	(1,0)	(1,0)	(1,0)	(1,0)	(1,0)	(1,0)	(1,0)	(1,0)	
L1D -297>	(1,1)	(1,0)	(1,0)	(1,0)	(1,0)	(1,0)	(1,0)	(1,0)	(1,0)	(1,0)	(1,0)	(1,0)	(1,0)	(1,0)	(1,0)	(1,0)	
L1D -296>	(200,11)	(-120,4)	(1,0)	(1,0)	(1,0)	(1,0)	(1,0)	(1,0)	(1,0)	(1,0)	(1,0)	(1,0)	(1,0)	(1,0)	(1,0)	(1,0)	
L1D -295>	(226,27)	(248,5)	(246,6)	(394,3)	(294,112)	(295,2)	(1,0)	(1,0)	(1,0)	(1,0)	(1,0)	(1,0)	(1,0)	(1,0)	(1,0)	(1,0)	
L1D -294>	(-136,5)	(84,30)	(214,3)	(148,1)	(226,22)	(-30,1)	(-120,20)	(1,0)	(1,0)	(1,0)	(1,0)	(1,0)	(1,0)	(1,0)	(1,0)	(1,0)	
L1D -293>	(293,1)	(292,1)	(1,0)	(1,0)	(1,0)	(1,0)	(1,0)	(1,0)	(1,0)	(1,0)	(1,0)	(1,0)	(1,0)	(1,0)	(1,0)	(1,0)	
L1D -292>	(290,0)	(-138,78)	(292,0)	(1,0)	(1,0)	(1,0)	(1,0)	(1,0)	(1,0)	(1,0)	(1,0)	(1,0)	(1,0)	(1,0)	(1,0)	(1,0)	
L1D -291>	(292,1)	(1,0)	(1,0)	(1,0)	(1,0)	(1,0)	(1,0)	(1,0)	(1,0)	(1,0)	(1,0)	(1,0)	(1,0)	(1,0)	(1,0)	(1,0)	
L1D -290>	(291,1)	(-42,1)	(290,1)	(1,0)	(1,0)	(1,0)	(1,0)	(1,0)	(1,0)	(1,0)	(1,0)	(1,0)	(1,0)	(1,0)	(1,0)	(1,0)	
L1D -289>	(-1,1)	(288,1)	(289,3)	(1,0)	(1,0)	(1,0)	(1,0)	(1,0)	(1,0)	(1,0)	(1,0)	(1,0)	(1,0)	(1,0)	(1,0)	(1,0)	
L1D -288>	(-126,1)	(288,1)	(-62,73)	(-74,0)	(287,0)	(1,0)	(1,0)	(1,0)	(1,0)	(1,0)	(1,0)	(1,0)	(1,0)	(1,0)	(1,0)	(1,0)	
L1D -287>	(1,1)	(287,1)	(288,1)	(1,0)	(1,0)	(1,0)	(1,0)	(1,0)	(1,0)	(1,0)	(1,0)	(1,0)	(1,0)	(1,0)	(1,0)	(1,0)	
L1D -286>	(306,0)	(300,11)	(146,0)	(186,120)	(54,8)	(188,1)	(-76,0)	(1,0)	(1,0)	(1,0)	(1,0)	(1,0)	(1,0)	(1,0)	(1,0)	(1,0)	
L1D -285>	(-105,3)	(67,2)	(285,3)	(1,0)	(1,0)	(1,0)	(1,0)	(1,0)	(1,0)	(1,0)	(1,0)	(1,0)	(1,0)	(1,0)	(1,0)	(1,0)	
L1D -284>	(138,22)	(286,8)	(-38,19)	(-104,11)	(298,5)	(284,1)	(1,0)	(1,0)	(1,0)	(1,0)	(1,0)	(1,0)	(1,0)	(1,0)	(1,0)	(1,0)	
L1D -283>	(308,119)	(283,0)	(1,0)	(1,0)	(1,0)	(1,0)	(1,0)	(1,0)	(1,0)	(1,0)	(1,0)	(1,0)	(1,0)	(1,0)	(1,0)	(1,0)	
L1D -282>	(-28,12)	(288,1)	(200,18)	(66,1)	(282,1)	(1,0)	(1,0)	(1,0)	(1,0)	(1,0)	(1,0)	(1,0)	(1,0)	(1,0)	(1,0)	(1,0)	
L1D -281>	(-105,2)	(1,4)	(280,4)	(281,1)	(1,0)	(1,0)	(1,0)	(1,0)	(1,0)	(1,0)	(1,0)	(1,0)	(1,0)	(1,0)	(1,0)	(1,0)	
L1D -280>	(280,68)	(200,28)	(4,3)	(1,7)	(-30,42)	(-1,2)	(279,7)	(281,5)	(1,0)	(1,0)	(1,0)	(1,0)	(1,0)	(1,0)	(1,0)	(1,0)	
L1D -279>	(-105,21)	(-1,12)	(279,64)	(280,8)	(1,0)	(1,0)	(1,0)	(1,0)	(1,0)	(1,0)	(1,0)	(1,0)	(1,0)	(1,0)	(1,0)	(1,0)	
L1D -278>	(200,15)	(278,1)	(-102,1)	(1,0)	(1,0)	(1,0)	(1,0)	(1,0)	(1,0)	(1,0)	(1,0)	(1,0)	(1,0)	(1,0)	(1,0)	(1,0)	
L1D -277>	(276,1)	(1,0)	(1,0)	(1,0)	(1,0)	(1,0)	(1,0)	(1,0)	(1,0)	(1,0)	(1,0)	(1,0)	(1,0)	(1,0)	(1,0)	(1,0)	
L1D -276>	(151,4)	(277,1)	(1,0)	(1,0)	(1,0)	(1,0)	(1,0)	(1,0)	(1,0)	(1,0)	(1,0)	(1,0)	(1,0)	(1,0)	(1,0)	(1,0)	
L1D -275>	(-105,16)	(275,1)	(276,1)	(1,0)	(1,0)	(1,0)	(1,0)	(1,0)	(1,0)	(1,0)	(1,0)	(1,0)	(1,0)	(1,0)	(1,0)	(1,0)	
L1D -274>	(-28,1)	(1,0)	(1,0)	(1,0)	(1,0)	(1,0)	(1,0)	(1,0)	(1,0)	(1,0)	(1,0)	(1,0)	(1,0)	(1,0)	(1,0)	(1,0)	
L1D -273>	(1,0)	(1,0)	(1,0)	(1,0)	(1,0)	(1,0)	(1,0)	(1,0)	(1,0)	(1,0)	(1,0)	(1,0)	(1,0)	(1,0)	(1,0)	(1,0)	
L1D -272>	(306,1)	(272,1)	(300,1)	(1,0)	(1,0)	(1,0)	(1,0)	(1,0)	(1,0)	(1,0)	(1,0)	(1,0)	(1,0)	(1,0)	(1,0)	(1,0)	
L1D -271>	(1,6)	(270,3)	(271,1)	(1,0)	(1,0)	(1,0)	(1,0)	(1,0)	(1,0)	(1,0)	(1,0)	(1,0)	(1,0)	(1,0)	(1,0)	(1,0)	
L1D -270>	(284,124)	(304,5)	(270,5)	(-66,2)	(-78,2)	(24,0)	(269,0)	(271,0)	(1,0)	(1,0)	(1,0)	(1,0)	(1,0)	(1,0)	(1,0)	(1,0)	
L1D -269>	(-1,12)	(269,64)	(270,6)	(1,0)	(1,0)	(1,0)	(1,0)	(1,0)	(1,0)	(1,0)	(1,0)	(1,0)	(1,0)	(1,0)	(1,0)	(1,0)	
L1D -268>	(36,39)	(-94,1)	(1,1)	(268,2)	(1,0)	(1,0)	(1,0)	(1,0)	(1,0)	(1,0)	(1,0)	(1,0)	(1,0)	(1,0)	(1,0)	(1,0)	
L1D -267>	(267,2)	(1,0)	(1,0)	(1,0)	(1,0)	(1,0)	(1,0)	(1,0)	(1,0)	(1,0)	(1,0)	(1,0)	(1,0)	(1,0)	(1,0)	(1,0)	
L1D -266>	(-94,22)	(236,20)	(267,1)	(1,0)	(1,0)	(1,0)	(1,0)	(1,0)	(1,0)	(1,0)	(1,0)	(1,0)	(1,0)	(1,0)	(1,0)	(1,0)	
L1D -265>	(262,6)	(265,1)	(1,0)	(1,0)	(1,0)	(1,0)	(1,0)	(1,0)	(1,0)	(1,0)	(1,0)	(1,0)	(1,0)	(1,0)	(1,0)	(1,0)	
L1D -264>	(262,0)	(394,0)	(404,0)	(392,0)	(-24,0)	(388,0)	(236,104)	(248,0)	(1,0)	(1,0)	(1,0)	(1,0)	(1,0)	(1,0)	(1,0)	(1,0)	
L1D -263>	(1,0)	(1,0)	(1,0)	(1,0)	(1,0)	(1,0)	(1,0)	(1,0)	(1,0)	(1,0)	(1,0)	(1,0)	(1,0)	(1,0)	(1,0)	(1,0)	
L1D -262>	(-24,45)	(-28,1)	(170,1)	(1,0)	(1,0)	(1,0)	(1,0)	(1,0)	(1,0)	(1,0)	(1,0)	(1,0)	(1,0)	(1,0)	(1,0)	(1,0)	
L1D -261>	(-1,1)	(1,0)	(1,0)	(1,0)	(1,0)	(1,0)	(1,0)	(1,0)	(1,0)	(1,0)	(1,0)	(1,0)	(1,0)	(1,0)	(1,0)	(1,0)	
L1D -260>	(30,32)	(-24,4)	(-90,6)	(-30,1)	(224,2)	(1,0)	(1,0)	(1,0)	(1,0)	(1,0)	(1,0)	(1,0)	(1,0)	(1,0)	(1,0)	(1,0)	
L1D -259>	(259,1)	(1,0)	(1,0)	(1,0)	(1,0)	(1,0)	(1,0)	(1,0)	(1,0)	(1,0)	(1,0)	(1,0)	(1,0)	(1,0)	(1,0)	(1,0)	
L1D -258>	(1,0)	(1,0)	(1,0)	(1,0)	(1,0)	(1,0)	(1,0)	(1,0)	(1,0)	(1,0)	(1,0)	(1,0)	(1,0)	(1,0)	(1,0)	(1,0)	
L1D -257>	(1,0)	(1,0)	(1,0)	(1,0)	(1,0)	(1,0)	(1,0)	(1,0)	(1,0)	(1,0)	(1,0)	(1,0)	(1,0)	(1,0)	(1,0)	(1,0)	
L1D -256>	(1,0)	(1,0)	(1,0)	(1,0)	(1,0)	(1,0)	(1,0)	(1,0)	(1,0)	(1,0)	(1,0)	(1,0)	(1,0)	(1,0)	(1,0)	(1,0)	
L1D -255>	(255,1)	(1,0)	(1,0)	(1,0)	(1,0)	(1,0)	(1,0)	(1,0)	(1,0)	(1,0)	(1,0)	(1,0)	(1,0)	(1,0)	(1,0)	(1,0)	
L1D -254>	(206,2)	(-74,3)	(1,1)	(1,0)	(1,0)	(1,0)	(1,0)	(1,0)	(1,0)	(1,0)	(1,0)	(1,0)	(1,0)	(1,0)	(1,0)	(1,0)	
L1D -253>	(34,20)	(1,0)	(1,0)	(1,0)	(1,0)	(1,0)	(1,0)	(1,0)	(1,0)	(1,0)	(1,0)	(1,0)	(1,0)	(1,0)	(1,0)	(1,0)	
L1D -252>	(206,2)	(240,1)	(164,1)	(1,0)	(1,0)	(1,0)	(1,0)	(1,0)	(1,0)	(1,0)	(1,0)	(1,0)	(1,0)	(1,0)	(1,0)	(1,0)	
L1D -251>	(-1,1)	(1,0)	(1,0)	(1,0)	(1,0)	(1,0)	(1,0)	(1,0)	(1,0)	(1,0)	(1,0)	(1,0)	(1,0)	(1,0)	(1,0)	(1,0)	
L1D -250>	(1,0)	(1,0)	(1,0)	(1,0)	(1,0)	(1,0)	(1,0)	(1,0)	(1,0)	(1,0)	(1,0)	(1,0)	(1,0)	(1,0)	(1,0)	(1,0)	
L1D -249>	(249,1)	(1,0)	(1,0)	(1,0)	(1,0)	(1,0)	(1,0)	(1,0)	(1,0)	(1,0)	(1,0)	(1,0)	(1,0)	(1,0)	(1,0)	(1,0)	
L1D -248>	(299,2)	(206,3)	(294,2)	(240,3)	(1,0)	(1,0)	(1,0)	(1,0)	(1,0)	(1,0)	(1,0)	(1,0)	(1,0)	(1,0)	(1,0)	(1,0)	
L1D -247>	(1,5)	(246,6)	(247,2)	(1,0)	(1,0)	(1,0)	(1,0)	(1,0)	(1,0)	(1,0)	(1,0)	(1,0)	(1,0)	(1,0)	(1,0)	(1,0)	
L1D -246>	(1,4)	(-1,0)	(294,0)	(246,34)	(-24,125)	(247,5)	(245,1)	(260,2)	(1,0)	(1,0)	(1,0)	(1,0)	(1,0)	(1,0)	(1,0)	(1,0)	
L1D -245>	(-1,8)	(245,73)	(34,19)	(246,4)	(1,0)	(1,0)	(1,0)	(1,0)	(1,0)	(1,0)	(1,0)	(1,0)	(1,0)	(1,0)	(1,0)	(1,0)	
L1D -244>	(12,9)	(148,3)	(244,1)	(62,1)	(1,0)	(1,0)	(1,0)	(1,0)	(1,0)	(1,0)	(1,0)	(1,0)	(1,0)	(1,0)	(1,0)	(1,0)	
L1D -243>	(242,6)	(1,5)	(243,3)	(1,0)	(1,0)	(1,0)	(1,0)	(1,0)	(1,0)	(1,0)	(1,0)	(1,0)	(1,0)	(1,0)	(1,0)	(1,0)	
L1D -242>	(1,9)	(150,2)	(-1,3)	(242,68)	(241,6)	(243,3)	(1,0)	(1,0)	(1,0)	(1,0)	(1,0)	(1,0)	(1,0)	(1,0)	(1,0)	(1,0)	
L1D -241>	(-1,5)	(241,70)	(242,10)	(1,0)	(1,0)	(1,0)	(1,0)	(1,0)	(1,0)	(1,0)	(1,0)	(1,0)	(1,0)	(1,0)	(1,0)	(1,0)	
L1D -240>	(206,3)	(238,2)	(-176,2)	(-102,2)	(119,2)	(240,1)	(1,0)	(1,0)	(1,0)	(1,0)	(1,0)	(1,0)	(1,0)	(1,0)	(1,0)	(1,0)	
L1D -239>	(1,0)	(1,0)	(1,0)	(1,0)	(1,0)	(1,0)	(1,0)	(1,0)	(1,0)	(1,0)	(1,0)	(1,0)	(1,0)	(1,0)	(1,0)	(1,0)	
L1D -238>	(-82,2)	(1,0)	(1,0)	(1,0)	(1,0)	(1,0)	(1,0)	(1,0)	(1,0)	(1,0)	(1,0)	(1,0)	(1,0)	(1,0)	(1,0)	(1,0)	
L1D -237>	(1,0)	(1,0)	(1,0)	(1,0)	(1,0)	(1,0)	(1,0)	(1,0)	(1,0)	(1,0)	(1,0)	(1,0)	(1,0)	(1,0)	(1,0)	(1,0)	
L1D -236>	(140,1)	(330,2)	(262,1)	(1,0)	(1,0)	(1,0)	(1,0)	(1,0)	(1,0)	(1,0)	(1,0)	(1,0)	(1,0)	(1,0)	(1,0)	(1,0)	
L1D -235>	(1,0)	(1,0)	(1,0)	(1,0)	(1,0)	(1,0)	(1,0)	(1,0)	(1,0)	(1,0)	(1,0)	(1,0)	(1,0)	(1,0)	(1,0)	(1,0)	
L1D -234>	(-1,1)	(24,41)	(1,0)	(1,0)	(1,0)	(1,0)	(1,0)	(1,0)	(1,0)	(1,0)	(1,0)	(1,0)	(1,0)	(1,0)	(1,0)	(1,0)	
L1D -233>	(233,1)	(1,0)	(1,0)	(1,0)	(1,0)	(1,0)	(1,0)	(1,0)	(1,0)	(1,0)	(1,0)	(1,0)	(1,0)	(1,0)	(1,0)	(1,0)	
L1D -232>	(255,0)	(92,0)	(238,64)	(112,0)	(146,0)	(114,1)	(132,0)	(-12,0)	(84,0)	(136,0)	(162,0)	(-212,6)	(-196,6)	(-30,0)	(-170,0)	(1,0)	
L1D -231>	(1,0)	(1,0)	(1,0)	(1,0)	(1,0)	(1,0)	(1,0)	(1,0)	(1,0)	(1,0)	(1,0)	(1,0)	(1,0)	(1,0)	(1,0)	(1,0)	
L1D -230>	(46,0)	(172,0)	(-64,0)	(-196,86)	(250,0)	(-90,0)	(-200,0)	(-8,0)	(12,0)	(206,0)	(4,0)	(212,0)	(68,0)	(1,0)	(1,0)	(1,0)	
L1D -229>	(1,0)	(1,0)	(1,0)	(1,0)	(1,0)	(1,0)	(1,0)	(1,0)	(1,0)	(1,0)	(1,0)	(1,0)	(1,0)	(1,0)	(1,0)	(1,0)	
L1D -228>	(212,0)	(-2,0)	(-66,0)	(-4,0)	(226,0)	(96,83)	(-64,124)	(1,0)	(1,0)	(1,0)	(1,0)	(1,0)	(1,0)	(1,0)	(1,0)	(1,0)	
L1D -227>	(1,0)	(1,0)	(1,0)	(1,0)	(1,0)	(1,0)	(1,0)	(1,0)	(1,0)	(1,0)	(1,0)	(1,0)	(1,0)	(1,0)	(1,0)	(1,0)	
L1D -226>	(-204,8)	(248,19)	(244,1)	(-102,1)	(1,0)	(1,0)	(1,0)	(1,0)	(1,0)	(1,0)	(1,0)	(1,0)	(1,0)	(1,0)	(1,0)	(1,0)	
L1D -225>	(-4,2)	(1,0)	(1,0)	(1,0)	(1,0)	(1,0)	(1,0)	(1,0)	(1,0)	(1,0)	(1,0)	(1,0)	(1,0)	(1,0)	(1,0)	(1,0)	
L1D -224>	(78,104)	(226,0)	(140,4)	(120,0)	(1,0)	(1,0)	(1,0)	(1,0)	(1,0)	(1,0)	(1,0)	(1,0)	(1,0)	(1,0)	(1,0)	(1,0)	
L1D -223>	(1,0)	(1,0)	(1,0)	(1,0)	(1,0)	(1,0)	(1,0)	(1,0)	(1,0)	(1,0)	(1,0)	(1,0)	(1,0)	(1,0)	(1,0)	(1,0)	
L1D -222>	(1,1)	(1,0)	(1,0)	(1,0)	(1,0)	(1,0)	(1,0)	(1,0)	(1,0)	(1,0)	(1,0)	(1,0)	(1,0)	(1,0)	(1,0)	(1,0)	
L1D -221>	(1,0)	(1,0)	(1,0)	(1,0)	(1,0)	(1,0)	(1,0)	(1,0)	(1,0)	(1,0)	(1,0)	(1,0)	(1,0)	(1,0)	(1,0)	(1,0)	
L1D -220>	(162,125)	(10,3)	(2,2)	(28,1)	(224,22)	(14,1)	(-24,1)	(1,0)	(1,0)	(1,0)	(1,0)	(1,0)	(1,0)	(1,0)	(1,0)	(1,0)	
L1D -219>	(-29,24)	(218,1)	(1,0)	(1,0)	(1,0)	(1,0)	(1,0)	(1,0)	(1,0)	(1,0)	(1,0)	(1,0)	(1,0)	(1,0)	(1,0)	(1,0)	
L1D -218>	(24,3)	(20,0)	(94,1)	(247,0)	(-2,4)	(74,0)	(62,97)	(176,1)	(1,0)	(1,0)	(1,0)	(1,0)	(1,0)	(1,0)	(1,0)	(1,0)	
L1D -217>	(-67,3)	(-4,21)	(217,1)	(1,0)	(1,0)	(1,0)	(1,0)	(1,0)	(1,0)	(1,0)	(1,0)	(1,0)	(1,0)	(1,0)	(1,0)	(1,0)	
L1D -216>	(-4,5)	(26,0)	(193,99)	(176,14)	(1,0)	(1,0)	(1,0)	(1,0)	(1,0)	(1,0)	(1,0)	(1,0)	(1,0)	(1,0)	(1,0)	(1,0)	
L1D -215>	(26,87)	(1,0)	(1,0)	(1,0)	(1,0)	(1,0)	(1,0)	(1,0)	(1,0)	(1,0)	(1,0)	(1,0)	(1,0)	(1,0)	(1,0)	(1,0)	
L1D -214>	(60,94)	(-4,115)	(256,0)	(168,0)	(12,0)	(58,1)	(1,0)	(1,0)	(1,0)	(1,0)	(1,0)	(1,0)	(1,0)	(1,0)	(1,0)	(1,0)	
L1D -213>	(1,0)	(1,0)	(1,0)	(1,0)	(1,0)	(1,0)	(1,0)	(1,0)	(1,0)	(1,0)	(1,0)	(1,0)	(1,0)	(1,0)	(1,0)	(1,0)	
L1D -212>	(150,65)	(122,2)	(18,0)	(82,0)	(206,0)	(26,0)	(120,0)	(444,3)	(168,6)	(114,0)	(158,2)	(196,0)	(42,7)	(142,0)	(8,3)	(112,2)	
L1D -211>	(175,4)	(1,0)	(1,0)	(1,0)	(1,0)	(1,0)	(1,0)	(1,0)	(1,0)	(1,0)	(1,0)	(1,0)	(1,0)	(1,0)	(1,0)	(1,0)	
L1D -210>	(20,91)	(200,91)	(280,0)	(54,0)	(-230,0)	(282,0)	(210,0)	(206,22)	(-24,0)	(278,0)	(1,0)	(1,0)	(1,0)	(1,0)	(1,0)	(1,0)	
L1D -209>	(1,0)	(1,0)	(1,0)	(1,0)	(1,0)	(1,0)	(1,0)	(1,0)	(1,0)	(1,0)	(1,0)	(1,0)	(1,0)	(1,0)	(1,0)	(1,0)	
L1D -208>	(96,56)	(-4,5)	(440,5)	(430,4)	(160,4)	(1,1)	(20,60)	(1,0)	(1,0)	(1,0)	(1,0)	(1,0)	(1,0)	(1,0)	(1,0)	(1,0)	
L1D -207>	(207,1)	(1,0)	(1,0)	(1,0)	(1,0)	(1,0)	(1,0)	(1,0)	(1,0)	(1,0)	(1,0)	(1,0)	(1,0)	(1,0)	(1,0)	(1,0)	
L1D -206>	(-14,2)	(188,2)	(1,0)	(1,0)	(1,0)	(1,0)	(1,0)	(1,0)	(1,0)	(1,0)	(1,0)	(1,0)	(1,0)	(1,0)	(1,0)	(1,0)	
L1D -205>	(1,0)	(1,0)	(1,0)	(1,0)	(1,0)	(1,0)	(1,0)	(1,0)	(1,0)	(1,0)	(1,0)	(1,0)	(1,0)	(1,0)	(1,0)	(1,0)	
L1D -204>	(76,13)	(78,13)	(200,8)	(146,6)	(10,20)	(218,8)	(116,2)	(36,2)	(108,2)	(1,0)	(1,0)	(1,0)	(1,0)	(1,0)	(1,0)	(1,0)	
L1D -203>	(108,23)	(87,1)	(145,1)	(1,0)	(1,0)	(1,0)	(1,0)	(1,0)	(1,0)	(1,0)	(1,0)	(1,0)	(1,0)	(1,0)	(1,0)	(1,0)	
L1D -202>	(42,101)	(-168,0)	(136,0)	(132,0)	(118,0)	(148,0)	(150,1)	(-12,0)	(-84,0)	(100,0)	(16,1)	(92,7)	(1,0)	(1,0)	(1,0)	(1,0)	
L1D -201>	(113,22)	(143,2)	(1,0)	(1,0)	(1,0)	(1,0)	(1,0)	(1,0)	(1,0)	(1,0)	(1,0)	(1,0)	(1,0)	(1,0)	(1,0)	(1,0)	
L1D -200>	(16,48)	(4,3)	(106,22)	(136,2)	(-10,2)	(138,1)	(204,1)	(186,1)	(1,0)	(1,0)	(1,0)	(1,0)	(1,0)	(1,0)	(1,0)	(1,0)	
L1D -199>	(1,0)	(1,0)	(1,0)	(1,0)	(1,0)	(1,0)	(1,0)	(1,0)	(1,0)	(1,0)	(1,0)	(1,0)	(1,0)	(1,0)	(1,0)	(1,0)	
L1D -198>	(196,115)	(-6,0)	(132,0)	(88,0)	(94,0)	(136,0)	(154,4)	(2,4)	(1,0)	(1,0)	(1,0)	(1,0)	(1,0)	(1,0)	(1,0)	(1,0)	
L1D -197>	(0,68)	(1,0)	(1,0)	(1,0)	(1,0)	(1,0)	(1,0)	(1,0)	(1,0)	(1,0)	(1,0)	(1,0)	(1,0)	(1,0)	(1,0)	(1,0)	
L1D -196>	(30,0)	(430,19)	(238,0)	(10,0)	(114,0)	(34,0)	(200,0)	(16,97)	(142,1)	(166,0)	(88,0)	(22,6)	(32,3)	(-2,4)	(136,1)	(1,0)	
L1D -195>	(195,68)	(1,0)	(1,0)	(1,0)	(1,0)	(1,0)	(1,0)	(1,0)	(1,0)	(1,0)	(1,0)	(1,0)	(1,0)	(1,0)	(1,0)	(1,0)	
L1D -194>	(150,2)	(70,24)	(16,23)	(34,2)	(202,1)	(1,0)	(1,0)	(1,0)	(1,0)	(1,0)	(1,0)	(1,0)	(1,0)	(1,0)	(1,0)	(1,0)	
L1D -193>	(224,1)	(1,0)	(1,0)	(1,0)	(1,0)	(1,0)	(1,0)	(1,0)	(1,0)	(1,0)	(1,0)	(1,0)	(1,0)	(1,0)	(1,0)	(1,0)	
L1D -192>	(290,2)	(196,127)	(152,0)	(218,0)	(100,0)	(190,0)	(178,0)	(-2,1)	(432,0)	(294,0)	(186,18)	(284,1)	(288,3)	(286,2)	(1,0)	(1,0)	
L1D -191>	(206,2)	(1,0)	(1,0)	(1,0)	(1,0)	(1,0)	(1,0)	(1,0)	(1,0)	(1,0)	(1,0)	(1,0)	(1,0)	(1,0)	(1,0)	(1,0)	
L1D -190>	(188,101)	(16,27)	(31,17)	(298,3)	(-2,9)	(72,3)	(-118,2)	(196,5)	(148,1)	(186,19)	(-264,2)	(124,1)	(1,0)	(1,0)	(1,0)	(1,0)	
L1D -189>	(206,3)	(-120,23)	(1,0)	(1,0)	(1,0)	(1,0)	(1,0)	(1,0)	(1,0)	(1,0)	(1,0)	(1,0)	(1,0)	(1,0)	(1,0)	(1,0)	
L1D -188>	(-15,0)	(186,0)	(-94,121)	(138,1)	(118,0)	(80,0)	(144,1)	(130,0)	(72,0)	(28,0)	(208,0)	(124,0)	(206,0)	(26,0)	(30,0)	(84,0)	
L1D -187>	(90,116)	(1,0)	(1,0)	(1,0)	(1,0)	(1,0)	(1,0)	(1,0)	(1,0)	(1,0)	(1,0)	(1,0)	(1,0)	(1,0)	(1,0)	(1,0)	
L1D -186>	(-2,0)	(-94,0)	(-10,0)	(286,0)	(64,0)	(170,0)	(58,0)	(90,0)	(82,0)	(-16,123)	(24,3)	(182,3)	(1,0)	(1,0)	(1,0)	(1,0)	
L1D -185>	(181,9)	(209,27)	(165,64)	(116,62)	(91,7)	(90,20)	(106,20)	(1,0)	(1,0)	(1,0)	(1,0)	(1,0)	(1,0)	(1,0)	(1,0)	(1,0)	
L1D -184>	(22,24)	(-14,0)	(-46,70)	(138,1)	(-144,0)	(76,0)	(182,0)	(-152,1)	(-164,0)	(-156,0)	(1,0)	(1,0)	(1,0)	(1,0)	(1,0)	(1,0)	
L1D -183>	(1,0)	(1,0)	(1,0)	(1,0)	(1,0)	(1,0)	(1,0)	(1,0)	(1,0)	(1,0)	(1,0)	(1,0)	(1,0)	(1,0)	(1,0)	(1,0)	
L1D -182>	(-26,4)	(-14,0)	(106,2)	(104,0)	(74,0)	(118,0)	(72,0)	(-20,99)	(46,0)	(76,0)	(12,104)	(162,3)	(1,0)	(1,0)	(1,0)	(1,0)	
L1D -181>	(165,23)	(87,1)	(167,15)	(67,1)	(1,0)	(1,0)	(1,0)	(1,0)	(1,0)	(1,0)	(1,0)	(1,0)	(1,0)	(1,0)	(1,0)	(1,0)	
L1D -180>	(-2,69)	(82,40)	(116,30)	(156,7)	(145,43)	(112,3)	(-28,1)	(50,1)	(72,1)	(190,7)	(160,1)	(1,0)	(1,0)	(1,0)	(1,0)	(1,0)	
L1D -179>	(-95,109)	(-203,0)	(181,1)	(-6,0)	(87,0)	(1,0)	(1,0)	(1,0)	(1,0)	(1,0)	(1,0)	(1,0)	(1,0)	(1,0)	(1,0)	(1,0)	
L1D -178>	(102,17)	(182,6)	(109,4)	(74,36)	(130,45)	(120,2)	(174,20)	(96,19)	(1,0)	(1,0)	(1,0)	(1,0)	(1,0)	(1,0)	(1,0)	(1,0)	
L1D -177>	(173,11)	(97,1)	(1,0)	(1,0)	(1,0)	(1,0)	(1,0)	(1,0)	(1,0)	(1,0)	(1,0)	(1,0)	(1,0)	(1,0)	(1,0)	(1,0)	
L1D -176>	(353,3)	(4,4)	(175,2)	(172,1)	(9,0)	(345,1)	(348,1)	(347,74)	(2,0)	(344,1)	(-168,0)	(193,0)	(1,0)	(1,0)	(1,0)	(1,0)	
L1D -175>	(4,85)	(176,0)	(-170,3)	(3,2)	(343,0)	(347,0)	(-168,0)	(172,21)	(346,1)	(-172,0)	(-169,10)	(2,6)	(-1,0)	(344,0)	(348,0)	(97,0)	
L1D -174>	(173,119)	(346,12)	(-172,19)	(28,1)	(344,6)	(29,26)	(4,47)	(3,19)	(171,1)	(210,1)	(342,1)	(-173,1)	(96,17)	(343,6)	(-169,1)	(2,5)	
L1D -173>	(-172,61)	(174,85)	(344,58)	(172,106)	(-173,13)	(170,23)	(343,5)	(5,1)	(3,2)	(-1,19)	(1,23)	(171,3)	(4,0)	(-3,5)	(-169,0)	(-171,8)	
L1D -172>	(1,9)	(190,1)	(-1,7)	(-3,6)	(345,14)	(-171,2)	(170,5)	(171,42)	(169,20)	(347,3)	(-173,17)	(179,10)	(344,3)	(173,120)	(94,4)	(-172,7)	
L1D -171>	(172,47)	(-4,4)	(343,23)	(1,23)	(-2,17)	(170,37)	(-3,17)	(173,17)	(168,11)	(-1,92)	(-170,0)	(344,8)	(-172,27)	(175,2)	(174,1)	(2,2)	
L1D -170>	(173,64)	(-172,18)	(172,84)	(344,3)	(168,1)	(-1,57)	(-173,2)	(169,10)	(-174,1)	(171,3)	(94,1)	(174,13)	(-3,9)	(146,1)	(-4,4)	(342,22)	
L1D -169>	(70,0)	(-1,37)	(-171,2)	(1,9)	(171,85)	(174,0)	(172,0)	(-172,10)	(-175,0)	(168,0)	(-4,0)	(342,0)	(173,2)	(-2,0)	(341,0)	(-120,1)	
L1D -168>	(172,85)	(-4,20)	(171,1)	(170,0)	(92,0)	(1,9)	(-10,0)	(-44,2)	(76,0)	(340,1)	(-176,5)	(344,5)	(84,13)	(343,1)	(1,0)	(1,0)	
L1D -167>	(75,1)	(-128,18)	(-2,0)	(2,67)	(95,3)	(-172,6)	(-1,1)	(-6,1)	(1,0)	(1,0)	(1,0)	(1,0)	(1,0)	(1,0)	(1,0)	(1,0)	
L1D -166>	(186,0)	(-15,0)	(156,0)	(202,0)	(-32,0)	(74,111)	(136,2)	(142,1)	(-172,0)	(1,0)	(1,0)	(1,0)	(1,0)	(1,0)	(1,0)	(1,0)	
L1D -165>	(-105,86)	(3,0)	(-2,2)	(344,0)	(-1,15)	(1,5)	(172,7)	(-172,4)	(9,0)	(93,0)	(1,0)	(1,0)	(1,0)	(1,0)	(1,0)	(1,0)	
L1D -164>	(120,0)	(186,101)	(80,0)	(136,0)	(88,3)	(8,2)	(13,2)	(1,0)	(1,0)	(1,0)	(1,0)	(1,0)	(1,0)	(1,0)	(1,0)	(1,0)	
L1D -163>	(-105,68)	(167,4)	(171,31)	(170,1)	(-1,12)	(-172,3)	(172,1)	(1,0)	(1,0)	(1,0)	(1,0)	(1,0)	(1,0)	(1,0)	(1,0)	(1,0)	
L1D -162>	(68,3)	(206,0)	(66,3)	(136,0)	(-42,0)	(-2,0)	(188,0)	(62,0)	(84,0)	(124,0)	(26,0)	(118,28)	(-24,64)	(186,6)	(116,1)	(52,1)	
L1D -161>	(1,0)	(1,0)	(1,0)	(1,0)	(1,0)	(1,0)	(1,0)	(1,0)	(1,0)	(1,0)	(1,0)	(1,0)	(1,0)	(1,0)	(1,0)	(1,0)	
L1D -160>	(191,2)	(176,1)	(-8,5)	(206,53)	(116,1)	(208,1)	(150,0)	(100,122)	(0,0)	(1,0)	(1,0)	(1,0)	(1,0)	(1,0)	(1,0)	(1,0)	
L1D -159>	(1,0)	(74,90)	(75,0)	(-43,0)	(-31,0)	(3,2)	(1,0)	(1,0)	(1,0)	(1,0)	(1,0)	(1,0)	(1,0)	(1,0)	(1,0)	(1,0)	
L1D -158>	(132,97)	(-2,104)	(162,3)	(118,30)	(48,17)	(136,3)	(149,7)	(18,6)	(114,9)	(74,3)	(14,3)	(160,42)	(100,63)	(126,7)	(-48,28)	(92,15)	
L1D -157>	(46,11)	(1,0)	(1,0)	(1,0)	(1,0)	(1,0)	(1,0)	(1,0)	(1,0)	(1,0)	(1,0)	(1,0)	(1,0)	(1,0)	(1,0)	(1,0)	
L1D -156>	(172,0)	(12,0)	(-12,1)	(90,0)	(86,0)	(-32,0)	(208,75)	(10,4)	(4,0)	(1,0)	(1,0)	(1,0)	(1,0)	(1,0)	(1,0)	(1,0)	
L1D -155>	(56,4)	(-62,120)	(1,0)	(1,0)	(1,0)	(1,0)	(1,0)	(1,0)	(1,0)	(1,0)	(1,0)	(1,0)	(1,0)	(1,0)	(1,0)	(1,0)	
L1D -154>	(202,1)	(100,0)	(134,0)	(-2,0)	(-66,6)	(106,89)	(226,9)	(26,15)	(138,1)	(96,3)	(1,1)	(1,0)	(1,0)	(1,0)	(1,0)	(1,0)	
L1D -153>	(151,113)	(148,1)	(149,1)	(1,0)	(1,0)	(1,0)	(1,0)	(1,0)	(1,0)	(1,0)	(1,0)	(1,0)	(1,0)	(1,0)	(1,0)	(1,0)	
L1D -152>	(96,88)	(114,1)	(188,0)	(-12,1)	(1,0)	(1,0)	(1,0)	(1,0)	(1,0)	(1,0)	(1,0)	(1,0)	(1,0)	(1,0)	(1,0)	(1,0)	
L1D -151>	(52,6)	(90,12)	(-5,2)	(1,0)	(1,0)	(1,0)	(1,0)	(1,0)	(1,0)	(1,0)	(1,0)	(1,0)	(1,0)	(1,0)	(1,0)	(1,0)	
L1D -150>	(210,88)	(188,0)	(186,4)	(-70,1)	(-158,0)	(10,0)	(100,0)	(168,0)	(162,0)	(-40,4)	(192,0)	(190,9)	(42,3)	(138,3)	(167,1)	(-9,1)	
L1D -149>	(106,20)	(-12,19)	(118,19)	(1,0)	(1,0)	(1,0)	(1,0)	(1,0)	(1,0)	(1,0)	(1,0)	(1,0)	(1,0)	(1,0)	(1,0)	(1,0)	
L1D -148>	(174,0)	(210,86)	(6,0)	(160,0)	(-84,0)	(216,0)	(416,0)	(120,0)	(146,0)	(-44,0)	(162,0)	(46,0)	(42,0)	(24,3)	(206,10)	(1,0)	
L1D -147>	(223,6)	(-12,82)	(13,1)	(1,0)	(1,0)	(1,0)	(1,0)	(1,0)	(1,0)	(1,0)	(1,0)	(1,0)	(1,0)	(1,0)	(1,0)	(1,0)	
L1D -146>	(208,16)	(210,0)	(1,0)	(2,1)	(-90,1)	(-46,0)	(148,0)	(244,0)	(92,0)	(180,0)	(292,0)	(-26,0)	(152,0)	(-44,0)	(218,97)	(-2,0)	
L1D -145>	(0,68)	(116,1)	(8,0)	(67,0)	(-36,0)	(82,2)	(1,0)	(1,0)	(1,0)	(1,0)	(1,0)	(1,0)	(1,0)	(1,0)	(1,0)	(1,0)	
L1D -144>	(358,121)	(-8,0)	(138,1)	(216,0)	(-74,0)	(194,1)	(428,0)	(66,2)	(12,0)	(36,1)	(2,0)	(78,0)	(-72,0)	(-14,0)	(118,0)	(96,8)	
L1D -143>	(133,0)	(223,0)	(113,102)	(-5,0)	(115,0)	(147,0)	(131,0)	(-21,27)	(-8,0)	(101,0)	(1,0)	(1,0)	(1,0)	(1,0)	(1,0)	(1,0)	
L1D -142>	(170,0)	(-76,111)	(40,0)	(-26,0)	(50,0)	(76,0)	(49,1)	(126,3)	(188,0)	(152,0)	(1,0)	(1,0)	(1,0)	(1,0)	(1,0)	(1,0)	
L1D -141>	(1,0)	(1,0)	(1,0)	(1,0)	(1,0)	(1,0)	(1,0)	(1,0)	(1,0)	(1,0)	(1,0)	(1,0)	(1,0)	(1,0)	(1,0)	(1,0)	
L1D -140>	(218,7)	(102,73)	(-21,78)	(0,3)	(26,74)	(22,1)	(52,1)	(30,7)	(54,10)	(194,2)	(215,4)	(13,0)	(-25,1)	(-18,0)	(150,59)	(12,0)	
L1D -139>	(1,3)	(-4,110)	(-1,123)	(-25,24)	(12,57)	(-17,1)	(1,0)	(1,0)	(1,0)	(1,0)	(1,0)	(1,0)	(1,0)	(1,0)	(1,0)	(1,0)	
L1D -138>	(144,1)	(430,2)	(428,80)	(72,1)	(-4,0)	(132,0)	(1,0)	(124,0)	(-2,3)	(148,0)	(140,0)	(70,0)	(228,0)	(11,2)	(186,1)	(198,5)	
L1D -137>	(71,1)	(13,1)	(-8,1)	(1,0)	(1,0)	(1,0)	(1,0)	(1,0)	(1,0)	(1,0)	(1,0)	(1,0)	(1,0)	(1,0)	(1,0)	(1,0)	
L1D -136>	(48,0)	(-78,90)	(-13,96)	(138,2)	(-21,0)	(106,10)	(42,13)	(148,1)	(52,38)	(104,0)	(28,0)	(150,0)	(144,9)	(50,4)	(-56,3)	(64,0)	
L1D -135>	(1,0)	(1,0)	(1,0)	(1,0)	(1,0)	(1,0)	(1,0)	(1,0)	(1,0)	(1,0)	(1,0)	(1,0)	(1,0)	(1,0)	(1,0)	(1,0)	
L1D -134>	(50,0)	(-13,103)	(-4,2)	(40,0)	(72,98)	(26,112)	(162,111)	(32,0)	(70,0)	(1,1)	(142,0)	(132,0)	(144,1)	(174,1)	(-26,1)	(34,11)	
L1D -133>	(19,3)	(1,0)	(1,0)	(1,0)	(1,0)	(1,0)	(1,0)	(1,0)	(1,0)	(1,0)	(1,0)	(1,0)	(1,0)	(1,0)	(1,0)	(1,0)	
L1D -132>	(6,101)	(-2,82)	(72,103)	(-73,35)	(176,0)	(96,96)	(-42,0)	(-4,3)	(40,6)	(-264,0)	(-96,0)	(118,0)	(110,1)	(198,0)	(144,0)	(128,0)	
L1D -131>	(71,11)	(209,7)	(1,1)	(121,41)	(1,0)	(1,0)	(1,0)	(1,0)	(1,0)	(1,0)	(1,0)	(1,0)	(1,0)	(1,0)	(1,0)	(1,0)	
L1D -130>	(-4,2)	(30,27)	(-264,19)	(28,6)	(206,3)	(-26,3)	(104,2)	(66,21)	(-50,61)	(18,21)	(-52,1)	(1,1)	(1,0)	(1,0)	(1,0)	(1,0)	
L1D -129>	(46,40)	(131,3)	(196,3)	(74,12)	(1,0)	(1,0)	(1,0)	(1,0)	(1,0)	(1,0)	(1,0)	(1,0)	(1,0)	(1,0)	(1,0)	(1,0)	
L1D -128>	(-20,0)	(226,0)	(-74,0)	(68,0)	(172,0)	(-264,0)	(-2,0)	(72,0)	(120,0)	(294,83)	(96,2)	(206,1)	(1,0)	(1,0)	(1,0)	(1,0)	
L1D -127>	(1,4)	(25,17)	(45,16)	(129,5)	(48,4)	(1,0)	(1,0)	(1,0)	(1,0)	(1,0)	(1,0)	(1,0)	(1,0)	(1,0)	(1,0)	(1,0)	
L1D -126>	(140,6)	(192,0)	(-20,0)	(-86,0)	(98,0)	(-1,0)	(1,0)	(32,55)	(-26,0)	(94,0)	(52,84)	(48,9)	(44,1)	(1,0)	(1,0)	(1,0)	
L1D -125>	(-1,5)	(-153,2)	(1,0)	(1,0)	(1,0)	(1,0)	(1,0)	(1,0)	(1,0)	(1,0)	(1,0)	(1,0)	(1,0)	(1,0)	(1,0)	(1,0)	
L1D -124>	(-13,110)	(148,2)	(144,0)	(-26,108)	(32,55)	(-6,0)	(84,0)	(29,0)	(96,1)	(20,7)	(206,29)	(208,17)	(210,3)	(112,2)	(52,3)	(-21,0)	
L1D -123>	(25,4)	(106,11)	(-153,2)	(1,0)	(1,0)	(1,0)	(1,0)	(1,0)	(1,0)	(1,0)	(1,0)	(1,0)	(1,0)	(1,0)	(1,0)	(1,0)	
L1D -122>	(-96,100)	(154,107)	(210,111)	(118,96)	(186,1)	(0,11)	(164,2)	(28,4)	(14,5)	(150,42)	(112,4)	(92,3)	(160,103)	(1,1)	(44,90)	(52,4)	
L1D -121>	(-27,104)	(67,0)	(70,1)	(-93,0)	(1,0)	(1,0)	(1,0)	(1,0)	(1,0)	(1,0)	(1,0)	(1,0)	(1,0)	(1,0)	(1,0)	(1,0)	
L1D -120>	(8,1)	(96,15)	(98,0)	(238,11)	(118,82)	(146,70)	(132,0)	(92,0)	(162,0)	(150,0)	(94,63)	(-36,1)	(-2,11)	(190,1)	(90,0)	(148,1)	
L1D -119>	(-1,0)	(-67,0)	(-283,10)	(92,0)	(158,92)	(1,0)	(1,0)	(1,0)	(1,0)	(1,0)	(1,0)	(1,0)	(1,0)	(1,0)	(1,0)	(1,0)	
L1D -118>	(6,6)	(0,24)	(26,101)	(88,10)	(106,54)	(-2,7)	(114,3)	(132,16)	(54,14)	(92,13)	(116,1)	(56,15)	(149,114)	(307,2)	(82,5)	(198,3)	
L1D -117>	(1,0)	(1,0)	(1,0)	(1,0)	(1,0)	(1,0)	(1,0)	(1,0)	(1,0)	(1,0)	(1,0)	(1,0)	(1,0)	(1,0)	(1,0)	(1,0)	
L1D -116>	(218,86)	(32,0)	(36,5)	(112,2)	(180,6)	(145,2)	(-4,1)	(110,1)	(208,9)	(-2,0)	(82,5)	(172,0)	(136,2)	(90,2)	(114,2)	(151,5)	
L1D -115>	(209,12)	(181,0)	(113,62)	(87,66)	(93,0)	(185,0)	(201,0)	(99,51)	(-283,0)	(101,0)	(1,0)	(1,0)	(1,0)	(1,0)	(1,0)	(1,0)	
L1D -114>	(222,78)	(-28,0)	(24,8)	(130,79)	(190,0)	(-40,1)	(-96,0)	(6,1)	(100,2)	(94,1)	(78,1)	(28,0)	(126,0)	(74,5)	(118,0)	(14,3)	
L1D -113>	(25,3)	(1,0)	(1,0)	(1,0)	(1,0)	(1,0)	(1,0)	(1,0)	(1,0)	(1,0)	(1,0)	(1,0)	(1,0)	(1,0)	(1,0)	(1,0)	
L1D -112>	(2,1)	(-122,125)	(58,8)	(162,0)	(66,1)	(-20,0)	(-96,1)	(-2,1)	(150,0)	(218,0)	(208,0)	(114,0)	(-8,0)	(16,0)	(28,3)	(-80,114)	
L1D -111>	(-48,6)	(1,0)	(1,0)	(1,0)	(1,0)	(1,0)	(1,0)	(1,0)	(1,0)	(1,0)	(1,0)	(1,0)	(1,0)	(1,0)	(1,0)	(1,0)	
L1D -110>	(88,1)	(92,6)	(218,6)	(102,77)	(-30,74)	(110,0)	(145,0)	(130,1)	(212,0)	(-2,13)	(-48,2)	(-12,3)	(-4,0)	(18,0)	(180,1)	(-50,0)	
L1D -109>	(179,52)	(-2,4)	(110,11)	(-6,7)	(1,0)	(1,0)	(1,0)	(1,0)	(1,0)	(1,0)	(1,0)	(1,0)	(1,0)	(1,0)	(1,0)	(1,0)	
L1D -108>	(10,82)	(118,45)	(18,45)	(96,42)	(-10,45)	(100,1)	(15,19)	(8,1)	(168,0)	(-8,0)	(-6,0)	(84,4)	(74,43)	(54,3)	(-104,3)	(82,0)	
L1D -107>	(-2,3)	(1,0)	(1,0)	(1,0)	(1,0)	(1,0)	(1,0)	(1,0)	(1,0)	(1,0)	(1,0)	(1,0)	(1,0)	(1,0)	(1,0)	(1,0)	
L1D -106>	(52,1)	(106,0)	(32,0)	(74,0)	(136,78)	(-2,0)	(14,0)	(16,1)	(96,73)	(80,0)	(190,0)	(150,1)	(28,0)	(114,0)	(-12,0)	(20,2)	
L1D -105>	(294,109)	(390,0)	(382,0)	(384,0)	(-2,0)	(398,0)	(388,0)	(164,1)	(1,0)	(1,0)	(1,0)	(1,0)	(1,0)	(1,0)	(1,0)	(1,0)	
L1D -104>	(-76,77)	(66,0)	(202,82)	(102,0)	(72,0)	(-8,0)	(88,0)	(-4,0)	(108,0)	(119,0)	(-6,0)	(-74,1)	(74,1)	(388,0)	(12,73)	(158,5)	
L1D -103>	(-2,6)	(169,4)	(97,3)	(81,1)	(1,0)	(1,0)	(1,0)	(1,0)	(1,0)	(1,0)	(1,0)	(1,0)	(1,0)	(1,0)	(1,0)	(1,0)	
L1D -102>	(86,60)	(10,99)	(-80,44)	(22,10)	(-8,1)	(84,54)	(58,7)	(92,1)	(60,47)	(12,3)	(108,1)	(40,2)	(106,2)	(20,4)	(186,22)	(8,4)	
L1D -101>	(113,25)	(1,0)	(1,0)	(1,0)	(1,0)	(1,0)	(1,0)	(1,0)	(1,0)	(1,0)	(1,0)	(1,0)	(1,0)	(1,0)	(1,0)	(1,0)	
L1D -100>	(70,0)	(14,68)	(90,67)	(-108,68)	(114,2)	(96,16)	(54,1)	(-8,1)	(186,4)	(94,0)	(30,3)	(-14,46)	(8,10)	(138,4)	(110,2)	(208,2)	
L1D -99>	(-10,124)	(-40,75)	(-85,0)	(185,0)	(103,0)	(209,1)	(-2,0)	(-56,5)	(-70,25)	(169,3)	(1,0)	(1,0)	(1,0)	(1,0)	(1,0)	(1,0)	
L1D -98>	(6,0)	(96,3)	(-2,1)	(24,6)	(63,49)	(152,0)	(149,1)	(44,79)	(124,3)	(114,1)	(12,1)	(128,1)	(100,1)	(-10,0)	(94,37)	(206,15)	
L1D -97>	(0,23)	(4,12)	(26,42)	(32,27)	(101,3)	(-2,13)	(10,3)	(68,20)	(1,0)	(1,0)	(1,0)	(1,0)	(1,0)	(1,0)	(1,0)	(1,0)	
L1D -96>	(206,8)	(-4,1)	(20,74)	(-84,2)	(92,81)	(100,6)	(-63,81)	(-128,75)	(-108,2)	(130,78)	(46,3)	(24,78)	(34,70)	(167,4)	(148,3)	(16,5)	
L1D -95>	(-122,87)	(103,1)	(4,0)	(-108,0)	(29,0)	(75,1)	(32,0)	(-84,51)	(10,78)	(286,2)	(-90,4)	(26,1)	(1,0)	(1,0)	(1,0)	(1,0)	
L1D -94>	(38,1)	(2,102)	(0,1)	(28,104)	(36,110)	(-6,1)	(102,4)	(100,23)	(241,116)	(96,3)	(-32,6)	(-110,9)	(218,1)	(360,6)	(30,1)	(-106,2)	
L1D -93>	(-2,46)	(129,3)	(95,5)	(-4,6)	(124,1)	(-119,86)	(83,12)	(147,1)	(52,1)	(1,0)	(1,0)	(1,0)	(1,0)	(1,0)	(1,0)	(1,0)	
L1D -92>	(24,21)	(28,22)	(52,7)	(94,3)	(-4,75)	(20,76)	(108,35)	(18,9)	(214,33)	(38,36)	(132,14)	(150,1)	(-26,35)	(26,6)	(-8,3)	(12,3)	
L1D -91>	(175,5)	(83,6)	(85,6)	(93,3)	(1,1)	(-1,1)	(28,37)	(1,0)	(1,0)	(1,0)	(1,0)	(1,0)	(1,0)	(1,0)	(1,0)	(1,0)	
L1D -90>	(8,94)	(-34,94)	(82,95)	(20,1)	(84,3)	(120,22)	(148,0)	(116,4)	(-2,26)	(132,1)	(12,5)	(134,0)	(194,88)	(-12,1)	(2,0)	(-108,0)	
L1D -89>	(1,31)	(-12,38)	(-8,5)	(12,2)	(1,0)	(1,0)	(1,0)	(1,0)	(1,0)	(1,0)	(1,0)	(1,0)	(1,0)	(1,0)	(1,0)	(1,0)	
L1D -88>	(72,1)	(22,3)	(30,90)	(28,44)	(-124,2)	(96,31)	(92,2)	(1,6)	(210,1)	(-26,6)	(-10,6)	(-12,92)	(194,5)	(-8,9)	(-115,97)	(16,2)	
L1D -87>	(2,14)	(-1,3)	(-27,3)	(16,2)	(1,0)	(1,0)	(1,0)	(1,0)	(1,0)	(1,0)	(1,0)	(1,0)	(1,0)	(1,0)	(1,0)	(1,0)	
L1D -86>	(144,2)	(-85,1)	(28,8)	(-50,2)	(328,56)	(-20,2)	(8,111)	(-16,1)	(14,2)	(20,2)	(-44,54)	(-14,6)	(13,15)	(-26,5)	(76,3)	(48,1)	
L1D -85>	(94,13)	(-1,111)	(169,0)	(91,2)	(93,5)	(-8,0)	(-40,2)	(102,0)	(12,6)	(172,2)	(170,2)	(32,6)	(1,0)	(1,0)	(1,0)	(1,0)	
L1D -84>	(-36,4)	(-114,96)	(-32,98)	(-52,6)	(82,98)	(110,61)	(2,97)	(13,54)	(30,7)	(90,9)	(106,85)	(42,8)	(72,4)	(114,1)	(-10,98)	(28,6)	
L1D -83>	(83,48)	(81,83)	(-1,58)	(167,1)	(0,2)	(67,9)	(115,0)	(91,0)	(113,0)	(181,0)	(1,0)	(1,0)	(1,0)	(1,0)	(1,0)	(1,0)	
L1D -82>	(84,94)	(-8,1)	(2,23)	(-2,3)	(30,0)	(1,64)	(20,0)	(-7,0)	(86,31)	(-75,1)	(68,0)	(4,0)	(11,3)	(78,1)	(-45,0)	(162,0)	
L1D -81>	(29,0)	(81,87)	(0,0)	(28,0)	(-2,0)	(-218,0)	(1,0)	(1,0)	(1,0)	(1,0)	(1,0)	(1,0)	(1,0)	(1,0)	(1,0)	(1,0)	
L1D -80>	(106,2)	(90,4)	(138,91)	(8,3)	(-22,54)	(66,2)	(24,1)	(34,1)	(-44,52)	(1,11)	(182,3)	(0,13)	(78,2)	(-12,6)	(82,1)	(30,1)	
L1D -79>	(22,97)	(1,0)	(1,0)	(1,0)	(1,0)	(1,0)	(1,0)	(1,0)	(1,0)	(1,0)	(1,0)	(1,0)	(1,0)	(1,0)	(1,0)	(1,0)	
L1D -78>	(-12,4)	(74,37)	(76,17)	(14,1)	(-96,4)	(92,20)	(-6,68)	(8,87)	(-44,5)	(10,2)	(52,17)	(18,1)	(22,7)	(66,4)	(-8,4)	(28,41)	
L1D -77>	(13,88)	(174,0)	(1,0)	(113,0)	(1,0)	(1,0)	(1,0)	(1,0)	(1,0)	(1,0)	(1,0)	(1,0)	(1,0)	(1,0)	(1,0)	(1,0)	
L1D -76>	(-13,66)	(176,76)	(98,71)	(2,1)	(86,1)	(74,37)	(218,0)	(-98,0)	(-188,1)	(66,74)	(190,2)	(132,71)	(-21,2)	(84,1)	(-22,48)	(-1,5)	
L1D -75>	(74,14)	(103,15)	(1,0)	(1,0)	(1,0)	(1,0)	(1,0)	(1,0)	(1,0)	(1,0)	(1,0)	(1,0)	(1,0)	(1,0)	(1,0)	(1,0)	
L1D -74>	(44,15)	(72,84)	(40,3)	(81,72)	(-6,72)	(84,6)	(328,1)	(42,1)	(48,28)	(-14,2)	(6,69)	(-10,2)	(10,2)	(2,62)	(38,32)	(374,3)	
L1D -73>	(67,2)	(73,0)	(285,0)	(65,101)	(-20,29)	(-21,4)	(1,0)	(1,0)	(1,0)	(1,0)	(1,0)	(1,0)	(1,0)	(1,0)	(1,0)	(1,0)	
L1D -72>	(-7,50)	(48,43)	(-2,12)	(-28,70)	(78,2)	(72,60)	(66,70)	(-48,1)	(-20,36)	(26,45)	(120,18)	(-16,51)	(62,0)	(108,5)	(-36,57)	(358,2)	
L1D -71>	(70,0)	(-26,0)	(-67,107)	(217,0)	(-96,0)	(16,0)	(-40,0)	(1,0)	(119,0)	(-20,10)	(-21,13)	(35,1)	(2,0)	(1,0)	(1,0)	(1,0)	
L1D -70>	(48,13)	(-70,101)	(118,101)	(2,96)	(-6,104)	(68,80)	(-52,1)	(0,101)	(30,20)	(61,2)	(14,4)	(35,80)	(70,16)	(-8,3)	(10,75)	(86,4)	
L1D -69>	(12,95)	(70,25)	(1,2)	(68,0)	(69,0)	(71,0)	(-7,0)	(95,5)	(-226,0)	(67,0)	(22,0)	(-116,15)	(35,43)	(-110,5)	(16,0)	(1,0)	
L1D -68>	(-40,47)	(11,1)	(84,0)	(32,4)	(48,55)	(56,0)	(22,65)	(124,10)	(20,4)	(-70,3)	(-2,1)	(118,1)	(104,2)	(0,3)	(8,1)	(80,23)	
L1D -67>	(1,0)	(286,93)	(12,39)	(10,0)	(284,0)	(138,0)	(167,0)	(181,11)	(66,0)	(186,0)	(185,0)	(1,0)	(1,0)	(1,0)	(1,0)	(1,0)	
L1D -66>	(12,7)	(-29,5)	(-26,101)	(10,89)	(-28,1)	(92,8)	(-20,6)	(20,5)	(-18,8)	(-92,42)	(48,3)	(74,75)	(11,9)	(26,11)	(-148,18)	(66,11)	
L1D -65>	(-32,8)	(-1,2)	(66,1)	(65,1)	(1,0)	(1,0)	(1,0)	(1,0)	(1,0)	(1,0)	(1,0)	(1,0)	(1,0)	(1,0)	(1,0)	(1,0)	
L1D -64>	(0,22)	(26,14)	(74,15)	(66,91)	(-13,16)	(-150,52)	(68,52)	(-136,8)	(78,11)	(20,14)	(-158,13)	(-24,1)	(-115,2)	(72,6)	(76,19)	(-30,6)	
L1D -63>	(95,98)	(-122,0)	(65,0)	(85,0)	(183,0)	(10,5)	(24,0)	(-32,8)	(131,0)	(68,3)	(34,2)	(-116,1)	(1,0)	(1,0)	(1,0)	(1,0)	
L1D -62>	(90,44)	(-32,15)	(-8,6)	(-40,1)	(146,11)	(64,9)	(-2,37)	(217,44)	(118,13)	(126,17)	(-150,1)	(18,13)	(-72,26)	(-104,1)	(48,107)	(78,1)	
L1D -61>	(-84,7)	(-1,0)	(59,0)	(128,81)	(1,0)	(1,0)	(1,0)	(1,0)	(1,0)	(1,0)	(1,0)	(1,0)	(1,0)	(1,0)	(1,0)	(1,0)	
L1D -60>	(58,89)	(48,8)	(-8,84)	(-90,33)	(12,1)	(56,2)	(-92,2)	(-36,4)	(44,20)	(-18,3)	(-68,3)	(-102,12)	(62,74)	(30,11)	(72,3)	(-32,3)	
L1D -59>	(196,2)	(-7,2)	(142,12)	(1,0)	(1,0)	(1,0)	(1,0)	(1,0)	(1,0)	(1,0)	(1,0)	(1,0)	(1,0)	(1,0)	(1,0)	(1,0)	
L1D -58>	(-143,1)	(48,29)	(74,70)	(-6,1)	(-2,0)	(-32,30)	(72,37)	(-42,35)	(-114,0)	(12,1)	(-44,0)	(62,4)	(-30,2)	(60,1)	(-18,7)	(64,0)	
L1D -57>	(39,0)	(196,0)	(64,0)	(-21,20)	(-20,102)	(14,7)	(-23,25)	(2,0)	(-5,3)	(1,0)	(1,0)	(1,0)	(1,0)	(1,0)	(1,0)	(1,0)	
L1D -56>	(64,86)	(-6,16)	(66,76)	(-80,58)	(92,5)	(-2,20)	(-116,3)	(-328,50)	(-46,8)	(-8,14)	(60,4)	(52,4)	(70,2)	(146,86)	(-36,40)	(48,1)	
L1D -55>	(-3,120)	(1,0)	(1,0)	(1,0)	(1,0)	(1,0)	(1,0)	(1,0)	(1,0)	(1,0)	(1,0)	(1,0)	(1,0)	(1,0)	(1,0)	(1,0)	
L1D -54>	(72,0)	(-24,68)	(-158,0)	(-32,6)	(6,1)	(142,2)	(96,9)	(82,0)	(80,0)	(-12,0)	(140,1)	(-38,0)	(-52,0)	(-80,0)	(-36,0)	(120,1)	
L1D -53>	(54,5)	(62,17)	(58,109)	(-16,0)	(1,0)	(1,0)	(1,0)	(1,0)	(1,0)	(1,0)	(1,0)	(1,0)	(1,0)	(1,0)	(1,0)	(1,0)	
L1D -52>	(80,66)	(72,10)	(50,2)	(-150,1)	(114,1)	(13,13)	(0,0)	(-12,1)	(92,0)	(44,2)	(122,6)	(-140,0)	(96,3)	(148,1)	(-28,57)	(-30,2)	
L1D -51>	(70,3)	(-43,1)	(20,41)	(1,0)	(1,0)	(1,0)	(1,0)	(1,0)	(1,0)	(1,0)	(1,0)	(1,0)	(1,0)	(1,0)	(1,0)	(1,0)	
L1D -50>	(-14,0)	(-36,0)	(144,4)	(116,2)	(92,0)	(-122,0)	(156,0)	(-30,0)	(136,1)	(13,33)	(-28,10)	(52,3)	(82,2)	(40,1)	(-34,6)	(-132,78)	
L1D -49>	(1,17)	(-1,113)	(-35,0)	(-246,0)	(12,57)	(1,0)	(1,0)	(1,0)	(1,0)	(1,0)	(1,0)	(1,0)	(1,0)	(1,0)	(1,0)	(1,0)	
L1D -48>	(10,92)	(-8,97)	(46,75)	(84,4)	(-2,103)	(-46,1)	(144,1)	(70,2)	(178,5)	(-106,91)	(136,0)	(110,2)	(11,1)	(-88,4)	(-36,6)	(148,7)	
L1D -47>	(51,4)	(-248,2)	(2,1)	(43,1)	(1,0)	(1,0)	(1,0)	(1,0)	(1,0)	(1,0)	(1,0)	(1,0)	(1,0)	(1,0)	(1,0)	(1,0)	
L1D -46>	(74,1)	(60,103)	(44,0)	(127,25)	(-12,3)	(42,89)	(-116,1)	(230,2)	(-108,37)	(68,84)	(14,1)	(-18,82)	(2,0)	(48,1)	(-68,1)	(36,1)	
L1D -45>	(10,0)	(-2,81)	(48,0)	(129,0)	(-70,3)	(1,0)	(1,0)	(1,0)	(1,0)	(1,0)	(1,0)	(1,0)	(1,0)	(1,0)	(1,0)	(1,0)	
L1D -44>	(152,1)	(48,65)	(42,17)	(118,1)	(34,89)	(-12,4)	(212,2)	(140,96)	(84,1)	(-158,17)	(-108,1)	(-154,1)	(40,0)	(-114,1)	(6,0)	(18,82)	
L1D -43>	(-92,118)	(-106,2)	(94,0)	(1,0)	(1,0)	(1,0)	(1,0)	(1,0)	(1,0)	(1,0)	(1,0)	(1,0)	(1,0)	(1,0)	(1,0)	(1,0)	
L1D -42>	(-170,85)	(26,81)	(40,5)	(-24,3)	(24,3)	(44,1)	(-4,7)	(-174,3)	(138,74)	(-26,2)	(54,2)	(140,2)	(22,2)	(38,0)	(316,2)	(76,1)	
L1D -41>	(4,4)	(5,4)	(-1,1)	(33,10)	(137,18)	(1,0)	(1,0)	(1,0)	(1,0)	(1,0)	(1,0)	(1,0)	(1,0)	(1,0)	(1,0)	(1,0)	
L1D -40>	(-176,10)	(-152,126)	(114,13)	(-98,39)	(34,111)	(-60,78)	(158,1)	(26,5)	(-26,92)	(-16,11)	(110,8)	(42,106)	(178,91)	(112,78)	(54,11)	(44,5)	
L1D -39>	(113,72)	(-12,58)	(101,0)	(-20,111)	(1,0)	(1,0)	(1,0)	(1,0)	(1,0)	(1,0)	(1,0)	(1,0)	(1,0)	(1,0)	(1,0)	(1,0)	
L1D -38>	(-66,6)	(-8,0)	(-62,7)	(-39,1)	(-50,0)	(33,91)	(40,0)	(156,1)	(-94,93)	(-58,1)	(-48,1)	(178,0)	(-100,2)	(86,4)	(24,1)	(-16,1)	
L1D -37>	(1,88)	(-21,2)	(-20,24)	(2,0)	(1,0)	(1,0)	(1,0)	(1,0)	(1,0)	(1,0)	(1,0)	(1,0)	(1,0)	(1,0)	(1,0)	(1,0)	
L1D -36>	(35,100)	(-72,7)	(-80,6)	(20,1)	(18,13)	(-36,3)	(-114,6)	(154,2)	(-12,4)	(-174,64)	(-67,2)	(-150,3)	(84,80)	(58,3)	(4,3)	(-32,2)	
L1D -35>	(-39,0)	(-61,0)	(-45,65)	(5,25)	(-10,0)	(1,0)	(181,0)	(-151,0)	(-29,0)	(-145,0)	(1,0)	(1,0)	(1,0)	(1,0)	(1,0)	(1,0)	
L1D -34>	(-74,0)	(84,64)	(-6,9)	(80,11)	(10,1)	(42,3)	(-34,11)	(338,1)	(16,0)	(-4,4)	(154,60)	(-26,2)	(68,3)	(-2,0)	(-10,2)	(-8,15)	
L1D -33>	(1,0)	(1,0)	(1,0)	(1,0)	(1,0)	(1,0)	(1,0)	(1,0)	(1,0)	(1,0)	(1,0)	(1,0)	(1,0)	(1,0)	(1,0)	(1,0)	
L1D -32>	(154,4)	(36,98)	(58,106)	(92,14)	(-8,13)	(94,1)	(-4,9)	(28,53)	(12,8)	(4,14)	(-84,8)	(68,57)	(132,3)	(25,1)	(-348,6)	(42,7)	
L1D -31>	(-236,0)	(-26,117)	(-12,6)	(-118,2)	(1,0)	(1,0)	(1,0)	(1,0)	(1,0)	(1,0)	(1,0)	(1,0)	(1,0)	(1,0)	(1,0)	(1,0)	
L1D -30>	(254,14)	(0,60)	(-106,1)	(134,77)	(86,3)	(-84,0)	(118,16)	(80,17)	(-110,0)	(24,7)	(-90,2)	(-76,0)	(10,6)	(23,4)	(-30,1)	(26,0)	
L1D -29>	(17,7)	(31,0)	(-162,0)	(33,1)	(26,0)	(-116,2)	(44,0)	(-34,3)	(1,3)	(28,1)	(249,1)	(2,0)	(-154,126)	(34,105)	(75,16)	(245,0)	
L1D -28>	(9,1)	(75,1)	(98,1)	(-74,1)	(20,0)	(254,1)	(38,4)	(-62,1)	(110,8)	(28,6)	(-16,83)	(42,0)	(24,1)	(22,90)	(30,89)	(-96,7)	
L1D -27>	(97,109)	(27,0)	(1,0)	(1,0)	(1,0)	(1,0)	(1,0)	(1,0)	(1,0)	(1,0)	(1,0)	(1,0)	(1,0)	(1,0)	(1,0)	(1,0)	
L1D -26>	(-96,54)	(-52,1)	(206,4)	(-92,1)	(70,107)	(-8,1)	(14,43)	(6,9)	(-37,54)	(34,1)	(78,4)	(114,45)	(167,53)	(0,6)	(-94,2)	(-148,40)	
L1D -25>	(13,85)	(-84,8)	(9,30)	(8,13)	(95,14)	(3,0)	(1,0)	(1,0)	(1,0)	(1,0)	(1,0)	(1,0)	(1,0)	(1,0)	(1,0)	(1,0)	
L1D -24>	(-52,103)	(11,1)	(-2,94)	(96,45)	(22,23)	(30,2)	(3,66)	(17,5)	(12,75)	(9,74)	(-146,62)	(284,13)	(25,50)	(92,75)	(27,15)	(6,5)	
L1D -23>	(18,75)	(20,3)	(3,14)	(13,0)	(-5,0)	(14,0)	(1,0)	(1,0)	(1,0)	(1,0)	(1,0)	(1,0)	(1,0)	(1,0)	(1,0)	(1,0)	
L1D -22>	(32,70)	(100,0)	(96,3)	(28,71)	(38,9)	(24,42)	(-14,0)	(8,2)	(84,50)	(14,3)	(76,0)	(86,6)	(98,1)	(-36,2)	(-110,10)	(-64,1)	
L1D -21>	(13,33)	(8,40)	(-4,78)	(-3,0)	(20,3)	(5,0)	(18,12)	(7,0)	(24,0)	(1,0)	(1,0)	(1,0)	(1,0)	(1,0)	(1,0)	(1,0)	
L1D -20>	(-4,119)	(-1,29)	(22,40)	(-74,19)	(6,1)	(20,1)	(94,1)	(17,64)	(-44,4)	(80,2)	(28,16)	(-16,1)	(-162,12)	(92,24)	(19,36)	(-122,22)	
L1D -19>	(-9,22)	(152,17)	(6,33)	(10,6)	(20,34)	(-4,79)	(13,5)	(17,0)	(18,0)	(8,0)	(15,1)	(1,0)	(1,0)	(1,0)	(1,0)	(1,0)	
L1D -18>	(15,36)	(-48,96)	(-54,8)	(78,1)	(-122,5)	(-92,94)	(88,61)	(-72,3)	(-140,6)	(60,70)	(66,24)	(-11,86)	(134,94)	(-70,90)	(48,7)	(84,59)	
L1D -17>	(8,0)	(3,0)	(48,102)	(-12,0)	(1,0)	(1,0)	(1,0)	(1,0)	(1,0)	(1,0)	(1,0)	(1,0)	(1,0)	(1,0)	(1,0)	(1,0)	
L1D -16>	(54,19)	(-90,67)	(28,53)	(-72,4)	(-126,44)	(36,61)	(35,67)	(14,76)	(-8,23)	(6,1)	(30,67)	(100,4)	(64,67)	(98,9)	(114,19)	(-67,10)	
L1D -15>	(67,7)	(87,61)	(145,8)	(99,7)	(95,5)	(119,5)	(5,1)	(3,117)	(8,51)	(17,14)	(14,61)	(18,77)	(6,27)	(-1,21)	(115,19)	(-5,18)	
L1D -14>	(9,8)	(16,7)	(-6,38)	(28,60)	(42,82)	(-96,106)	(228,10)	(-10,1)	(100,6)	(328,3)	(13,35)	(-72,62)	(78,107)	(1,12)	(3,60)	(-92,8)	
L1D -13>	(12,76)	(-12,20)	(-10,5)	(-15,0)	(-7,6)	(8,0)	(-8,4)	(1,0)	(1,0)	(1,0)	(1,0)	(1,0)	(1,0)	(1,0)	(1,0)	(1,0)	
L1D -12>	(-7,7)	(88,36)	(8,81)	(-14,38)	(-62,4)	(-46,38)	(6,20)	(100,40)	(-52,43)	(-22,38)	(-6,1)	(3,74)	(92,32)	(58,38)	(-3,40)	(-30,43)	
L1D -11>	(12,55)	(-7,8)	(10,4)	(6,4)	(17,51)	(-4,21)	(9,1)	(-5,1)	(8,115)	(89,2)	(5,7)	(-8,11)	(75,1)	(1,3)	(3,20)	(55,1)	
L1D -10>	(2,6)	(3,66)	(140,38)	(84,7)	(18,0)	(13,9)	(22,17)	(28,33)	(-83,10)	(-6,60)	(-10,8)	(98,26)	(9,10)	(-16,18)	(12,7)	(1,26)	
L1D -9>	(4,50)	(8,6)	(-7,83)	(-14,1)	(-1,19)	(12,25)	(15,20)	(-11,34)	(18,30)	(2,0)	(3,9)	(13,1)	(-16,7)	(151,0)	(-31,3)	(-8,1)	
L1D -8>	(-12,102)	(-92,76)	(-102,77)	(-32,77)	(-2,113)	(20,72)	(-60,77)	(-4,24)	(-121,1)	(10,8)	(70,59)	(177,22)	(-34,50)	(82,61)	(54,8)	(185,23)	
L1D -7>	(15,32)	(22,45)	(7,105)	(-9,1)	(6,15)	(-6,0)	(-1,4)	(-7,0)	(-4,20)	(70,11)	(87,20)	(10,14)	(17,2)	(-25,0)	(1,0)	(1,0)	
L1D -6>	(15,50)	(8,6)	(-2,8)	(2,103)	(-16,1)	(1,46)	(-94,42)	(-86,49)	(66,49)	(70,50)	(36,17)	(185,44)	(-100,50)	(-58,50)	(80,50)	(72,40)	
L1D -5>	(8,29)	(-12,96)	(138,111)	(-15,0)	(17,3)	(-10,7)	(-23,0)	(-11,90)	(1,2)	(2,64)	(-19,78)	(145,28)	(78,12)	(6,51)	(-2,95)	(142,27)	
L1D -4>	(3,106)	(-48,1)	(22,40)	(2,49)	(9,116)	(1,30)	(-342,40)	(-26,44)	(12,44)	(10,40)	(13,33)	(114,44)	(18,25)	(27,35)	(-76,45)	(-21,25)	
L1D -3>	(-153,12)	(4,97)	(172,3)	(1,25)	(0,12)	(174,8)	(-7,15)	(175,2)	(136,12)	(-264,12)	(-21,2)	(176,3)	(345,1)	(346,11)	(-169,3)	(-170,1)	
L1D -2>	(-171,81)	(8,10)	(1,14)	(4,26)	(-1,64)	(13,9)	(-170,24)	(346,13)	(-2,40)	(-100,37)	(2,42)	(3,71)	(-72,23)	(-64,27)	(84,1)	(82,38)	
L1D -1>	(4,57)	(-1,92)	(2,16)	(-171,55)	(345,1)	(172,19)	(-170,18)	(346,2)	(-172,13)	(174,9)	(171,28)	(173,11)	(0,3)	(3,18)	(13,11)	(82,8)	
L1D 0>	(-7,11)	(81,5)	(0,93)	(160,1)	(-343,10)	(80,1)	(7,2)	(-3,2)	(-48,2)	(2,1)	(118,1)	(122,2)	(195,1)	(-195,2)	(-5,2)	(-12,1)	
L1D 1>	(171,3)	(7,16)	(342,2)	(170,4)	(343,8)	(-2,7)	(2,3)	(173,1)	(-4,1)	(-1,1)	(1,127)	(0,4)	(-24,1)	(-3,3)	(-171,2)	(172,1)	
L1D 2>	(-1,13)	(-92,29)	(3,5)	(-3,32)	(78,62)	(-2,31)	(-173,59)	(-171,13)	(2,80)	(1,31)	(0,33)	(8,1)	(-8,36)	(-172,72)	(-102,32)	(-90,31)	
L1D 3>	(-2,19)	(6,37)	(343,17)	(342,1)	(-6,14)	(1,45)	(10,9)	(9,35)	(-172,4)	(-1,37)	(171,26)	(170,19)	(-173,66)	(-344,6)	(24,4)	(15,6)	
L1D 4>	(-1,51)	(-175,9)	(-344,12)	(-174,54)	(170,44)	(-173,5)	(342,44)	(-98,10)	(8,1)	(10,18)	(343,4)	(-224,10)	(-3,40)	(-6,8)	(168,69)	(-176,60)	
L1D 5>	(-3,18)	(-4,4)	(1,58)	(-44,1)	(-62,21)	(-1,17)	(-172,5)	(-64,60)	(-7,76)	(-9,2)	(18,3)	(13,1)	(172,0)	(-2,0)	(3,1)	(1,0)	
L1D 6>	(18,61)	(-10,71)	(-15,2)	(-24,30)	(94,30)	(2,14)	(40,27)	(-1,13)	(12,6)	(-108,1)	(69,1)	(64,29)	(10,6)	(-100,6)	(84,1)	(24,17)	
L1D 7>	(0,85)	(3,0)	(-7,16)	(63,1)	(-172,0)	(70,0)	(1,66)	(-109,0)	(-99,0)	(1,0)	(1,0)	(1,0)	(1,0)	(1,0)	(1,0)	(1,0)	
L1D 8>	(-19,105)	(47,1)	(9,6)	(6,12)	(-3,47)	(64,33)	(-26,40)	(-28,36)	(58,37)	(-10,51)	(67,18)	(-80,37)	(69,29)	(-6,40)	(12,41)	(75,16)	
L1D 9>	(1,47)	(-11,114)	(13,88)	(9,52)	(-1,10)	(18,122)	(-6,3)	(12,16)	(-7,22)	(-18,14)	(83,22)	(344,2)	(-10,8)	(-3,16)	(21,5)	(78,3)	
L1D 10>	(-19,16)	(-12,41)	(-2,18)	(8,58)	(-90,68)	(88,7)	(2,1)	(28,71)	(58,4)	(90,69)	(48,58)	(-4,60)	(-14,74)	(68,2)	(12,92)	(-16,71)	
L1D 11>	(-20,33)	(-3,18)	(-43,0)	(-1,0)	(6,69)	(10,7)	(19,4)	(-9,2)	(1,0)	(1,0)	(1,0)	(1,0)	(1,0)	(1,0)	(1,0)	(1,0)	
L1D 12>	(-20,88)	(-18,2)	(-2,19)	(76,13)	(94,17)	(-24,17)	(-3,10)	(48,9)	(50,1)	(8,14)	(80,4)	(-19,19)	(66,15)	(10,1)	(-11,18)	(-21,1)	
L1D 13>	(-20,113)	(8,24)	(-14,0)	(-5,28)	(-1,4)	(-12,35)	(-7,1)	(-19,2)	(-11,3)	(12,2)	(-15,2)	(-17,0)	(1,0)	(1,0)	(1,0)	(1,0)	
L1D 14>	(10,8)	(83,1)	(14,46)	(34,66)	(-364,24)	(-78,8)	(48,4)	(52,3)	(-134,84)	(-110,6)	(-302,13)	(-86,13)	(28,3)	(-40,1)	(104,85)	(-92,69)	
L1D 15>	(69,8)	(75,23)	(0,65)	(-7,24)	(-3,6)	(47,9)	(81,18)	(65,34)	(67,23)	(83,22)	(39,4)	(-119,28)	(-1,2)	(12,2)	(3,0)	(-10,6)	
L1D 16>	(-108,76)	(178,1)	(-96,72)	(174,1)	(98,51)	(-60,8)	(-80,20)	(48,1)	(344,17)	(-100,51)	(-114,8)	(-12,2)	(12,5)	(-8,2)	(16,9)	(54,8)	
L1D 17>	(-25,1)	(70,19)	(-16,99)	(31,15)	(-11,3)	(2,2)	(141,1)	(145,46)	(142,51)	(126,59)	(-10,45)	(78,49)	(-15,4)	(138,53)	(-3,1)	(4,1)	
L1D 18>	(78,9)	(-9,92)	(58,1)	(-11,8)	(70,25)	(-6,30)	(-2,28)	(344,12)	(2,67)	(-7,5)	(12,11)	(-5,3)	(-19,16)	(142,5)	(138,12)	(-72,26)	
L1D 19>	(-28,0)	(-2,102)	(-14,0)	(-20,0)	(-4,0)	(-5,0)	(-1,10)	(-11,0)	(-13,66)	(-21,55)	(-23,2)	(70,9)	(1,0)	(1,0)	(1,0)	(1,0)	
L1D 20>	(-13,9)	(-22,54)	(48,4)	(138,49)	(-44,50)	(74,48)	(-95,1)	(-24,65)	(-21,10)	(-12,38)	(8,4)	(-92,38)	(-10,2)	(-6,3)	(-78,39)	(-26,2)	
L1D 21>	(-1,3)	(-13,82)	(70,10)	(-14,5)	(-15,15)	(-2,1)	(-23,6)	(-10,2)	(-6,1)	(1,0)	(1,0)	(1,0)	(1,0)	(1,0)	(1,0)	(1,0)	
L1D 22>	(-23,39)	(-5,105)	(66,8)	(58,1)	(8,41)	(-140,4)	(-16,7)	(10,35)	(-3,6)	(-11,4)	(-8,35)	(169,2)	(51,35)	(-110,30)	(80,3)	(70,3)	
L1D 23>	(19,124)	(-77,8)	(-16,0)	(70,8)	(7,1)	(-9,5)	(-5,1)	(-25,1)	(1,0)	(1,0)	(1,0)	(1,0)	(1,0)	(1,0)	(1,0)	(1,0)	
L1D 24>	(-52,16)	(6,79)	(84,16)	(-120,76)	(68,3)	(-36,1)	(-7,47)	(-16,1)	(70,4)	(-9,38)	(74,1)	(-12,10)	(186,1)	(72,49)	(90,2)	(28,30)	
L1D 25>	(-2,0)	(-192,0)	(-77,104)	(106,0)	(70,6)	(102,0)	(-64,56)	(1,0)	(1,0)	(1,0)	(1,0)	(1,0)	(1,0)	(1,0)	(1,0)	(1,0)	
L1D 26>	(26,6)	(-96,83)	(44,1)	(189,78)	(42,5)	(-2,87)	(-120,16)	(-26,98)	(-182,2)	(-38,90)	(-44,6)	(-118,10)	(20,3)	(-108,58)	(-30,20)	(-54,2)	
L1D 27>	(-25,0)	(70,1)	(-6,0)	(-1,0)	(-5,13)	(-10,11)	(-9,72)	(-16,15)	(3,0)	(1,0)	(1,0)	(1,0)	(1,0)	(1,0)	(1,0)	(1,0)	
L1D 28>	(-74,76)	(66,115)	(56,110)	(14,31)	(-42,80)	(-18,82)	(68,78)	(82,80)	(-12,71)	(-14,1)	(-44,29)	(-124,41)	(-24,53)	(-34,13)	(-68,18)	(268,9)	
L1D 29>	(-36,68)	(115,0)	(87,0)	(-63,0)	(119,0)	(-145,2)	(-1,0)	(1,0)	(1,0)	(1,0)	(1,0)	(1,0)	(1,0)	(1,0)	(1,0)	(1,0)	
L1D 30>	(-30,10)	(-24,4)	(66,96)	(-20,6)	(74,98)	(36,30)	(-60,19)	(-120,13)	(10,6)	(-40,11)	(-19,41)	(42,16)	(-114,7)	(-8,78)	(-13,1)	(-18,73)	
L1D 31>	(-84,98)	(-29,1)	(-1,1)	(-93,0)	(-185,4)	(34,0)	(-48,34)	(-224,17)	(-149,5)	(1,0)	(1,0)	(1,0)	(1,0)	(1,0)	(1,0)	(1,0)	
L1D 32>	(-34,3)	(8,71)	(-16,8)	(-116,1)	(100,4)	(-102,1)	(-20,5)	(-30,4)	(55,0)	(54,59)	(29,2)	(-72,5)	(18,40)	(96,26)	(20,2)	(36,4)	
L1D 33>	(41,0)	(-2,67)	(-70,0)	(211,0)	(1,0)	(1,0)	(1,0)	(1,0)	(1,0)	(1,0)	(1,0)	(1,0)	(1,0)	(1,0)	(1,0)	(1,0)	
L1D 34>	(-10,0)	(-2,1)	(38,61)	(219,0)	(-16,1)	(33,7)	(-4,0)	(-146,0)	(42,8)	(-18,58)	(41,55)	(-121,63)	(-40,0)	(34,0)	(-50,66)	(10,60)	
L1D 35>	(-36,0)	(-71,85)	(-129,0)	(34,0)	(-7,0)	(-61,94)	(-45,70)	(-39,2)	(5,0)	(1,0)	(1,0)	(1,0)	(1,0)	(1,0)	(1,0)	(1,0)	
L1D 36>	(-38,8)	(2,7)	(-14,1)	(-4,1)	(38,104)	(-212,16)	(155,4)	(56,2)	(-88,2)	(284,2)	(-40,91)	(-60,95)	(-92,3)	(-62,42)	(-104,94)	(66,5)	
L1D 37>	(1,0)	(1,0)	(1,0)	(1,0)	(1,0)	(1,0)	(1,0)	(1,0)	(1,0)	(1,0)	(1,0)	(1,0)	(1,0)	(1,0)	(1,0)	(1,0)	
L1D 38>	(336,1)	(16,71)	(48,15)	(20,1)	(-2,3)	(-42,3)	(-64,2)	(-30,4)	(-96,3)	(64,74)	(-14,3)	(-115,71)	(-8,28)	(-160,2)	(-80,1)	(-20,62)	
L1D 39>	(-140,107)	(-150,2)	(54,0)	(18,0)	(-44,0)	(1,0)	(1,0)	(1,0)	(1,0)	(1,0)	(1,0)	(1,0)	(1,0)	(1,0)	(1,0)	(1,0)	
L1D 40>	(2,11)	(-50,4)	(14,9)	(-42,1)	(32,5)	(8,2)	(-18,2)	(48,5)	(28,9)	(-198,1)	(38,1)	(-66,20)	(-14,3)	(-48,110)	(-84,86)	(88,1)	
L1D 41>	(-1,0)	(96,119)	(-10,0)	(172,1)	(1,0)	(1,0)	(1,0)	(1,0)	(1,0)	(1,0)	(1,0)	(1,0)	(1,0)	(1,0)	(1,0)	(1,0)	
L1D 42>	(-8,1)	(8,78)	(-84,9)	(-96,16)	(-24,93)	(30,2)	(-12,16)	(-168,5)	(274,9)	(40,14)	(34,1)	(76,6)	(-54,9)	(-18,63)	(58,100)	(-48,16)	
L1D 43>	(-2,1)	(1,0)	(1,0)	(1,0)	(1,0)	(1,0)	(1,0)	(1,0)	(1,0)	(1,0)	(1,0)	(1,0)	(1,0)	(1,0)	(1,0)	(1,0)	
L1D 44>	(26,1)	(-49,2)	(66,118)	(-2,101)	(-62,28)	(-48,2)	(-8,0)	(-44,5)	(-4,0)	(-6,5)	(-14,0)	(28,20)	(-96,0)	(38,0)	(2,3)	(-10,8)	
L1D 45>	(84,16)	(-1,1)	(1,0)	(1,0)	(1,0)	(1,0)	(1,0)	(1,0)	(1,0)	(1,0)	(1,0)	(1,0)	(1,0)	(1,0)	(1,0)	(1,0)	
L1D 46>	(-6,1)	(-12,0)	(81,67)	(186,4)	(-48,2)	(-152,0)	(-78,0)	(2,0)	(-58,0)	(1,0)	(14,0)	(-108,77)	(-44,0)	(-100,0)	(-114,1)	(-134,0)	
L1D 47>	(-49,36)	(78,0)	(-50,102)	(-37,78)	(-48,20)	(1,0)	(1,0)	(1,0)	(1,0)	(1,0)	(1,0)	(1,0)	(1,0)	(1,0)	(1,0)	(1,0)	
L1D 48>	(12,86)	(-58,82)	(-84,66)	(-86,13)	(-120,91)	(22,12)	(-66,71)	(-2,89)	(-70,5)	(36,9)	(2,1)	(28,55)	(-88,75)	(88,9)	(-36,6)	(-136,60)	
L1D 49>	(-81,66)	(-5,3)	(-1,2)	(-295,1)	(99,5)	(-299,3)	(77,0)	(1,0)	(1,0)	(1,0)	(1,0)	(1,0)	(1,0)	(1,0)	(1,0)	(1,0)	
L1D 50>	(-78,3)	(26,0)	(-2,21)	(-182,1)	(-58,0)	(-145,0)	(-64,1)	(-128,0)	(-48,0)	(-124,0)	(98,10)	(-40,1)	(-26,3)	(94,4)	(-118,2)	(86,119)	
L1D 51>	(-81,0)	(-299,0)	(-5,0)	(-43,0)	(-94,0)	(-31,83)	(93,122)	(1,0)	(1,0)	(1,0)	(1,0)	(1,0)	(1,0)	(1,0)	(1,0)	(1,0)	
L1D 52>	(-2,6)	(-4,25)	(-10,90)	(-26,3)	(-62,1)	(88,1)	(-64,1)	(106,4)	(96,54)	(-82,2)	(-44,30)	(-52,5)	(-212,126)	(62,33)	(66,2)	(70,5)	
L1D 53>	(-49,1)	(1,0)	(1,0)	(1,0)	(1,0)	(1,0)	(1,0)	(1,0)	(1,0)	(1,0)	(1,0)	(1,0)	(1,0)	(1,0)	(1,0)	(1,0)	
L1D 54>	(-158,1)	(-70,73)	(8,26)	(-144,1)	(10,11)	(-35,11)	(26,1)	(42,2)	(14,1)	(-6,27)	(-140,18)	(-202,1)	(-108,1)	(-198,4)	(-78,1)	(-20,1)	
L1D 55>	(-71,20)	(-49,12)	(1,0)	(1,0)	(1,0)	(1,0)	(1,0)	(1,0)	(1,0)	(1,0)	(1,0)	(1,0)	(1,0)	(1,0)	(1,0)	(1,0)	
L1D 56>	(-76,1)	(10,85)	(2,0)	(-162,85)	(-92,15)	(-124,32)	(114,0)	(-18,1)	(-40,0)	(-186,1)	(-58,0)	(38,0)	(-98,1)	(-54,1)	(44,0)	(-22,2)	
L1D 57>	(-43,25)	(141,1)	(-58,1)	(1,0)	(1,0)	(1,0)	(1,0)	(1,0)	(1,0)	(1,0)	(1,0)	(1,0)	(1,0)	(1,0)	(1,0)	(1,0)	
L1D 58>	(-46,1)	(-130,2)	(-64,54)	(-12,70)	(10,7)	(8,1)	(-76,1)	(-68,11)	(48,7)	(12,8)	(-62,28)	(136,6)	(34,70)	(50,57)	(-78,5)	(-120,63)	
L1D 59>	(141,43)	(-1,5)	(1,1)	(1,0)	(1,0)	(1,0)	(1,0)	(1,0)	(1,0)	(1,0)	(1,0)	(1,0)	(1,0)	(1,0)	(1,0)	(1,0)	
L1D 60>	(4,69)	(-48,55)	(-78,61)	(1,0)	(-66,1)	(-2,2)	(-70,0)	(16,0)	(84,0)	(26,51)	(-92,2)	(-24,54)	(312,1)	(-162,4)	(-36,0)	(52,0)	
L1D 61>	(-43,21)	(-145,66)	(-51,41)	(-29,39)	(-62,1)	(1,0)	(1,0)	(1,0)	(1,0)	(1,0)	(1,0)	(1,0)	(1,0)	(1,0)	(1,0)	(1,0)	
L1D 62>	(-34,7)	(-210,1)	(-74,11)	(-66,5)	(-96,7)	(-4,7)	(-2,12)	(-98,20)	(40,1)	(34,1)	(-108,7)	(52,100)	(10,69)	(-64,7)	(-32,54)	(-10,3)	
L1D 63>	(-39,0)	(-57,0)	(5,16)	(-63,12)	(2,0)	(9,0)	(-53,110)	(7,0)	(1,0)	(-95,2)	(1,0)	(1,0)	(1,0)	(1,0)	(1,0)	(1,0)	
L1D 64>	(108,1)	(-4,1)	(8,112)	(-94,10)	(-6,111)	(-2,14)	(-84,14)	(-46,2)	(-74,113)	(-69,3)	(6,19)	(-134,1)	(-70,91)	(-88,2)	(-66,6)	(-126,43)	
L1D 65>	(-67,36)	(-97,0)	(28,91)	(1,0)	(25,0)	(2,0)	(-55,45)	(-66,8)	(1,0)	(1,0)	(1,0)	(1,0)	(1,0)	(1,0)	(1,0)	(1,0)	
L1D 66>	(-58,7)	(-72,32)	(-8,28)	(-40,38)	(-202,32)	(-92,80)	(-54,41)	(-104,39)	(-6,40)	(2,38)	(-82,36)	(-34,1)	(-96,37)	(12,9)	(-108,39)	(-74,1)	
L1D 67>	(114,27)	(142,0)	(-186,0)	(-2,3)	(-69,17)	(-1,0)	(-196,0)	(6,0)	(0,0)	(2,0)	(-128,0)	(218,0)	(-57,99)	(1,0)	(-68,3)	(100,1)	
L1D 68>	(22,6)	(-20,9)	(-76,119)	(-82,1)	(-44,3)	(84,4)	(-12,1)	(-58,111)	(162,1)	(10,89)	(38,5)	(-64,11)	(66,85)	(-74,1)	(-36,3)	(-108,63)	
L1D 69>	(-72,112)	(10,0)	(1,0)	(-47,0)	(-79,20)	(2,0)	(-57,31)	(1,0)	(1,0)	(1,0)	(1,0)	(1,0)	(1,0)	(1,0)	(1,0)	(1,0)	
L1D 70>	(2,102)	(-35,14)	(-92,103)	(-78,6)	(-122,65)	(-70,104)	(-24,1)	(124,83)	(16,73)	(-98,63)	(-69,18)	(-96,16)	(76,8)	(-88,8)	(-95,65)	(-63,10)	
L1D 71>	(-38,127)	(-1,12)	(48,0)	(-167,86)	(1,0)	(1,0)	(1,0)	(1,0)	(1,0)	(1,0)	(1,0)	(1,0)	(1,0)	(1,0)	(1,0)	(1,0)	
L1D 72>	(-86,52)	(-92,10)	(4,30)	(-2,1)	(-72,90)	(48,54)	(-159,53)	(-34,10)	(0,3)	(-80,3)	(60,1)	(-38,49)	(-70,3)	(-8,6)	(-122,7)	(-18,4)	
L1D 73>	(1,71)	(-23,2)	(-8,2)	(-67,61)	(-69,2)	(-74,1)	(1,0)	(1,0)	(1,0)	(1,0)	(1,0)	(1,0)	(1,0)	(1,0)	(1,0)	(1,0)	
L1D 74>	(-4,112)	(-58,49)	(-18,117)	(4,40)	(-48,1)	(-94,86)	(-8,111)	(-80,5)	(2,5)	(-96,5)	(72,8)	(1,118)	(62,64)	(8,105)	(18,52)	(-64,113)	
L1D 75>	(60,87)	(-215,2)	(-67,0)	(28,1)	(174,0)	(96,11)	(-69,2)	(-72,0)	(172,0)	(1,0)	(1,0)	(1,0)	(1,0)	(1,0)	(1,0)	(1,0)	
L1D 76>	(-66,67)	(-8,5)	(-2,27)	(-190,0)	(-40,0)	(-115,0)	(-58,56)	(268,4)	(-14,0)	(36,3)	(4,0)	(-98,0)	(16,16)	(-44,0)	(2,0)	(38,2)	
L1D 77>	(-69,29)	(1,4)	(-49,6)	(2,11)	(-48,8)	(-126,4)	(-72,14)	(1,0)	(1,0)	(1,0)	(1,0)	(1,0)	(1,0)	(1,0)	(1,0)	(1,0)	
L1D 78>	(-76,70)	(-2,3)	(-102,1)	(32,1)	(-80,1)	(298,1)	(-78,3)	(2,78)	(-84,3)	(-70,73)	(284,4)	(-126,5)	(136,2)	(26,71)	(-90,72)	(-82,9)	
L1D 79>	(-1,8)	(-127,1)	(1,0)	(1,0)	(1,0)	(1,0)	(1,0)	(1,0)	(1,0)	(1,0)	(1,0)	(1,0)	(1,0)	(1,0)	(1,0)	(1,0)	
L1D 80>	(-2,58)	(16,12)	(-26,3)	(-6,96)	(-214,87)	(-4,89)	(-116,1)	(-46,69)	(-92,8)	(-50,14)	(-88,17)	(-74,38)	(14,2)	(-78,65)	(-84,24)	(-58,4)	
L1D 81>	(-82,113)	(-81,24)	(-127,1)	(-99,24)	(-84,14)	(-71,5)	(0,1)	(2,1)	(60,0)	(1,0)	(1,0)	(1,0)	(1,0)	(1,0)	(1,0)	(1,0)	
L1D 82>	(-82,69)	(16,69)	(-102,1)	(8,68)	(68,2)	(-40,50)	(-80,20)	(18,0)	(24,7)	(-216,2)	(-84,55)	(14,1)	(28,4)	(-158,2)	(-74,1)	(-16,68)	
L1D 83>	(-83,69)	(-85,31)	(-119,0)	(92,0)	(-86,15)	(-73,22)	(-16,0)	(60,1)	(1,0)	(1,0)	(1,0)	(1,0)	(1,0)	(1,0)	(1,0)	(1,0)	
L1D 84>	(-83,123)	(-92,9)	(-48,40)	(30,1)	(-82,3)	(-102,38)	(22,1)	(-62,37)	(-94,1)	(6,2)	(-80,3)	(-115,38)	(-72,28)	(-46,41)	(-66,2)	(-100,2)	
L1D 85>	(10,3)	(-2,6)	(17,2)	(-170,2)	(8,14)	(-53,48)	(-69,1)	(-86,1)	(1,0)	(1,0)	(1,0)	(1,0)	(1,0)	(1,0)	(1,0)	(1,0)	
L1D 86>	(-18,64)	(-16,0)	(10,1)	(-114,1)	(-115,0)	(-136,0)	(-66,2)	(-102,0)	(-220,0)	(-138,0)	(-48,1)	(-88,3)	(-64,64)	(4,50)	(-140,1)	(22,6)	
L1D 87>	(-106,82)	(-82,0)	(-88,5)	(-20,0)	(8,0)	(1,0)	(32,0)	(-172,76)	(2,0)	(1,0)	(1,0)	(1,0)	(1,0)	(1,0)	(1,0)	(1,0)	
L1D 88>	(-74,71)	(-58,7)	(-118,1)	(-16,46)	(-28,1)	(-112,1)	(-115,1)	(-86,1)	(-136,0)	(-88,0)	(-114,0)	(-220,1)	(-142,1)	(-48,0)	(4,6)	(-60,8)	
L1D 89>	(39,10)	(-1,2)	(1,1)	(-82,55)	(-90,1)	(1,0)	(1,0)	(1,0)	(1,0)	(1,0)	(1,0)	(1,0)	(1,0)	(1,0)	(1,0)	(1,0)	
L1D 90>	(-30,18)	(60,0)	(61,0)	(224,59)	(-96,1)	(4,103)	(-100,11)	(10,9)	(-6,2)	(280,5)	(-102,0)	(-70,1)	(-8,31)	(-12,101)	(95,3)	(-196,3)	
L1D 91>	(84,3)	(2,24)	(74,7)	(1,0)	(1,0)	(1,0)	(1,0)	(1,0)	(1,0)	(1,0)	(1,0)	(1,0)	(1,0)	(1,0)	(1,0)	(1,0)	
L1D 92>	(-114,119)	(-80,117)	(-96,9)	(-116,1)	(40,3)	(-70,5)	(-102,1)	(-84,84)	(-76,109)	(-64,3)	(-88,13)	(-8,80)	(344,22)	(76,2)	(2,118)	(66,7)	
L1D 93>	(-95,0)	(-10,2)	(36,0)	(2,0)	(-212,0)	(-8,0)	(-174,122)	(-2,0)	(1,0)	(1,0)	(1,0)	(1,0)	(1,0)	(1,0)	(1,0)	(1,0)	
L1D 94>	(-42,121)	(-36,1)	(-92,1)	(-60,1)	(-66,112)	(-4,94)	(82,1)	(-122,2)	(66,62)	(-74,122)	(-96,1)	(14,10)	(80,112)	(-134,1)	(26,1)	(-286,95)	
L1D 95>	(36,59)	(-124,0)	(191,66)	(2,0)	(-10,0)	(88,0)	(-97,0)	(-8,0)	(-78,0)	(22,6)	(-20,0)	(-85,3)	(92,2)	(-91,2)	(1,0)	(1,0)	
L1D 96>	(76,82)	(-40,85)	(110,60)	(-6,1)	(-16,80)	(2,4)	(66,3)	(-4,7)	(4,34)	(262,4)	(-108,83)	(-188,80)	(-88,18)	(-98,40)	(-73,55)	(-122,76)	
L1D 97>	(-29,109)	(-188,1)	(-44,0)	(-2,0)	(-16,0)	(-69,0)	(-99,0)	(90,0)	(1,0)	(1,0)	(1,0)	(1,0)	(1,0)	(1,0)	(1,0)	(1,0)	
L1D 98>	(16,1)	(80,108)	(22,2)	(-10,7)	(-4,4)	(-44,1)	(94,0)	(-114,1)	(-35,1)	(34,6)	(-14,1)	(-140,11)	(-82,1)	(-244,0)	(-8,0)	(-86,35)	
L1D 99>	(-109,0)	(-103,0)	(-12,0)	(70,0)	(-100,0)	(-71,0)	(-192,0)	(-2,0)	(110,73)	(1,0)	(1,0)	(1,0)	(1,0)	(1,0)	(1,0)	(1,0)	
L1D 100>	(38,1)	(-84,4)	(-58,126)	(-102,28)	(-92,12)	(-4,26)	(-86,2)	(-66,8)	(16,3)	(-6,2)	(-108,4)	(-68,1)	(60,3)	(14,2)	(62,7)	(-8,4)	
L1D 101>	(-103,3)	(31,2)	(14,1)	(100,20)	(12,19)	(1,0)	(1,0)	(1,0)	(1,0)	(1,0)	(1,0)	(1,0)	(1,0)	(1,0)	(1,0)	(1,0)	
L1D 102>	(-116,29)	(-182,0)	(-8,0)	(-110,3)	(-94,7)	(-136,40)	(60,0)	(-84,65)	(-42,2)	(56,0)	(-44,0)	(102,39)	(-100,1)	(-80,5)	(-88,0)	(-30,0)	
L1D 103>	(-18,2)	(-105,3)	(78,2)	(66,42)	(1,0)	(1,0)	(1,0)	(1,0)	(1,0)	(1,0)	(1,0)	(1,0)	(1,0)	(1,0)	(1,0)	(1,0)	
L1D 104>	(44,0)	(-132,1)	(-22,4)	(56,120)	(62,0)	(-108,0)	(12,0)	(-18,0)	(32,1)	(14,1)	(72,0)	(-174,0)	(-38,0)	(-184,0)	(-58,0)	(-112,0)	
L1D 105>	(-109,4)	(-107,3)	(1,0)	(1,0)	(1,0)	(1,0)	(1,0)	(1,0)	(1,0)	(1,0)	(1,0)	(1,0)	(1,0)	(1,0)	(1,0)	(1,0)	
L1D 106>	(-38,5)	(-132,84)	(-48,0)	(120,90)	(32,2)	(42,3)	(-86,9)	(94,1)	(-2,0)	(-78,1)	(-52,1)	(-22,11)	(-36,5)	(-54,8)	(-198,2)	(-92,7)	
L1D 107>	(-108,1)	(1,0)	(1,0)	(1,0)	(1,0)	(1,0)	(1,0)	(1,0)	(1,0)	(1,0)	(1,0)	(1,0)	(1,0)	(1,0)	(1,0)	(1,0)	
L1D 108>	(-14,103)	(-114,1)	(-86,4)	(-64,0)	(-34,0)	(-136,0)	(-110,0)	(-54,0)	(-122,0)	(-120,0)	(-98,1)	(-93,6)	(-50,2)	(-108,0)	(-90,1)	(-212,0)	
L1D 109>	(-7,4)	(70,2)	(1,0)	(1,0)	(1,0)	(1,0)	(1,0)	(1,0)	(1,0)	(1,0)	(1,0)	(1,0)	(1,0)	(1,0)	(1,0)	(1,0)	
L1D 110>	(-102,66)	(68,7)	(0,0)	(70,49)	(2,0)	(108,0)	(-112,68)	(-124,0)	(-28,0)	(-82,0)	(-106,0)	(69,0)	(-108,2)	(-158,5)	(-196,0)	(-122,1)	
L1D 111>	(1,0)	(1,0)	(1,0)	(1,0)	(1,0)	(1,0)	(1,0)	(1,0)	(1,0)	(1,0)	(1,0)	(1,0)	(1,0)	(1,0)	(1,0)	(1,0)	
L1D 112>	(280,0)	(-8,7)	(4,0)	(-14,5)	(-36,115)	(-158,13)	(-46,0)	(-86,0)	(50,0)	(10,0)	(-18,4)	(-212,0)	(-2,0)	(-208,6)	(-32,0)	(1,0)	
L1D 113>	(28,73)	(96,0)	(-14,2)	(2,0)	(14,0)	(-12,65)	(110,0)	(1,0)	(1,0)	(1,0)	(1,0)	(1,0)	(1,0)	(1,0)	(1,0)	(1,0)	
L1D 114>	(-86,4)	(-108,77)	(-70,93)	(-181,2)	(-106,2)	(-212,10)	(-90,2)	(30,1)	(-42,1)	(-78,2)	(-14,47)	(-36,1)	(-26,1)	(-210,1)	(124,1)	(-100,2)	
L1D 115>	(-14,20)	(1,12)	(-28,24)	(64,1)	(1,0)	(1,0)	(1,0)	(1,0)	(1,0)	(1,0)	(1,0)	(1,0)	(1,0)	(1,0)	(1,0)	(1,0)	
L1D 116>	(-18,18)	(-34,68)	(70,104)	(-158,56)	(-36,27)	(-90,14)	(-154,8)	(-64,3)	(40,29)	(-26,13)	(-38,6)	(-118,12)	(42,43)	(64,6)	(-84,3)	(-20,1)	
L1D 117>	(-119,4)	(1,0)	(1,0)	(1,0)	(1,0)	(1,0)	(1,0)	(1,0)	(1,0)	(1,0)	(1,0)	(1,0)	(1,0)	(1,0)	(1,0)	(1,0)	
L1D 118>	(-94,1)	(68,0)	(18,53)	(-158,0)	(-86,0)	(-118,2)	(14,6)	(22,101)	(-92,51)	(-58,0)	(-110,1)	(-140,0)	(-112,52)	(-66,22)	(-120,0)	(-40,5)	
L1D 119>	(39,25)	(-52,5)	(62,3)	(-27,2)	(-2,8)	(1,0)	(1,0)	(1,0)	(1,0)	(1,0)	(1,0)	(1,0)	(1,0)	(1,0)	(1,0)	(1,0)	
L1D 120>	(-86,103)	(28,15)	(-122,44)	(-2,0)	(22,1)	(-64,0)	(-130,1)	(26,2)	(70,0)	(-120,0)	(-88,1)	(-156,0)	(296,0)	(64,0)	(-8,0)	(102,3)	
L1D 121>	(88,45)	(4,2)	(1,0)	(1,0)	(1,0)	(1,0)	(1,0)	(1,0)	(1,0)	(1,0)	(1,0)	(1,0)	(1,0)	(1,0)	(1,0)	(1,0)	
L1D 122>	(-218,0)	(18,3)	(36,2)	(-122,126)	(38,0)	(-78,0)	(-4,12)	(-10,0)	(-124,0)	(-110,0)	(-125,0)	(1,0)	(1,0)	(1,0)	(1,0)	(1,0)	
L1D 123>	(6,8)	(-276,2)	(1,0)	(1,0)	(1,0)	(1,0)	(1,0)	(1,0)	(1,0)	(1,0)	(1,0)	(1,0)	(1,0)	(1,0)	(1,0)	(1,0)	
L1D 124>	(17,0)	(-124,14)	(-66,0)	(56,0)	(-156,3)	(-150,1)	(-18,0)	(-28,3)	(-92,9)	(-2,0)	(-26,1)	(-74,2)	(290,0)	(-4,0)	(82,3)	(-218,94)	
L1D 125>	(-84,3)	(1,0)	(1,0)	(1,0)	(1,0)	(1,0)	(1,0)	(1,0)	(1,0)	(1,0)	(1,0)	(1,0)	(1,0)	(1,0)	(1,0)	(1,0)	
L1D 126>	(-124,65)	(-145,0)	(-204,0)	(-94,7)	(-46,0)	(22,0)	(42,1)	(14,1)	(-74,0)	(-78,1)	(6,1)	(66,0)	(-137,0)	(1,0)	(1,0)	(1,0)	
L1D 127>	(-82,70)	(2,9)	(1,0)	(1,0)	(1,0)	(1,0)	(1,0)	(1,0)	(1,0)	(1,0)	(1,0)	(1,0)	(1,0)	(1,0)	(1,0)	(1,0)	
L1D 128>	(-88,0)	(-158,0)	(-58,0)	(-186,67)	(-48,0)	(-202,0)	(4,1)	(78,0)	(1,0)	(1,0)	(1,0)	(1,0)	(1,0)	(1,0)	(1,0)	(1,0)	
L1D 129>	(2,3)	(-83,18)	(-158,11)	(-130,2)	(1,1)	(1,0)	(1,0)	(1,0)	(1,0)	(1,0)	(1,0)	(1,0)	(1,0)	(1,0)	(1,0)	(1,0)	
L1D 130>	(66,68)	(38,3)	(2,0)	(-134,0)	(-145,0)	(-8,0)	(92,0)	(-24,0)	(58,0)	(4,0)	(-40,64)	(-180,1)	(1,0)	(1,0)	(1,0)	(1,0)	
L1D 131>	(78,3)	(4,2)	(-136,2)	(-62,21)	(-126,1)	(1,0)	(1,0)	(1,0)	(1,0)	(1,0)	(1,0)	(1,0)	(1,0)	(1,0)	(1,0)	(1,0)	
[...]
L1D 479>	(1,0)	(1,0)	(1,0)	(1,0)	(1,0)	(1,0)	(1,0)	(1,0)	(1,0)	(1,0)	(1,0)	(1,0)	(1,0)	(1,0)	(1,0)	(1,0)	
L1D 480>	(1,0)	(1,0)	(1,0)	(1,0)	(1,0)	(1,0)	(1,0)	(1,0)	(1,0)	(1,0)	(1,0)	(1,0)	(1,0)	(1,0)	(1,0)	(1,0)	
L1D 481>	(1,0)	(1,0)	(1,0)	(1,0)	(1,0)	(1,0)	(1,0)	(1,0)	(1,0)	(1,0)	(1,0)	(1,0)	(1,0)	(1,0)	(1,0)	(1,0)	
L1D 482>	(1,0)	(1,0)	(1,0)	(1,0)	(1,0)	(1,0)	(1,0)	(1,0)	(1,0)	(1,0)	(1,0)	(1,0)	(1,0)	(1,0)	(1,0)	(1,0)	
L1D 483>	(1,0)	(1,0)	(1,0)	(1,0)	(1,0)	(1,0)	(1,0)	(1,0)	(1,0)	(1,0)	(1,0)	(1,0)	(1,0)	(1,0)	(1,0)	(1,0)	
L1D 484>	(1,0)	(1,0)	(1,0)	(1,0)	(1,0)	(1,0)	(1,0)	(1,0)	(1,0)	(1,0)	(1,0)	(1,0)	(1,0)	(1,0)	(1,0)	(1,0)	
L1D 485>	(1,0)	(1,0)	(1,0)	(1,0)	(1,0)	(1,0)	(1,0)	(1,0)	(1,0)	(1,0)	(1,0)	(1,0)	(1,0)	(1,0)	(1,0)	(1,0)	
L1D 486>	(1,0)	(1,0)	(1,0)	(1,0)	(1,0)	(1,0)	(1,0)	(1,0)	(1,0)	(1,0)	(1,0)	(1,0)	(1,0)	(1,0)	(1,0)	(1,0)	
L1D 487>	(1,0)	(1,0)	(1,0)	(1,0)	(1,0)	(1,0)	(1,0)	(1,0)	(1,0)	(1,0)	(1,0)	(1,0)	(1,0)	(1,0)	(1,0)	(1,0)	
L1D 488>	(1,0)	(1,0)	(1,0)	(1,0)	(1,0)	(1,0)	(1,0)	(1,0)	(1,0)	(1,0)	(1,0)	(1,0)	(1,0)	(1,0)	(1,0)	(1,0)	
L1D 489>	(1,0)	(1,0)	(1,0)	(1,0)	(1,0)	(1,0)	(1,0)	(1,0)	(1,0)	(1,0)	(1,0)	(1,0)	(1,0)	(1,0)	(1,0)	(1,0)	
L1D 490>	(1,0)	(1,0)	(1,0)	(1,0)	(1,0)	(1,0)	(1,0)	(1,0)	(1,0)	(1,0)	(1,0)	(1,0)	(1,0)	(1,0)	(1,0)	(1,0)	
L1D 491>	(1,0)	(1,0)	(1,0)	(1,0)	(1,0)	(1,0)	(1,0)	(1,0)	(1,0)	(1,0)	(1,0)	(1,0)	(1,0)	(1,0)	(1,0)	(1,0)	
L1D 492>	(1,0)	(1,0)	(1,0)	(1,0)	(1,0)	(1,0)	(1,0)	(1,0)	(1,0)	(1,0)	(1,0)	(1,0)	(1,0)	(1,0)	(1,0)	(1,0)	
L1D 493>	(1,0)	(1,0)	(1,0)	(1,0)	(1,0)	(1,0)	(1,0)	(1,0)	(1,0)	(1,0)	(1,0)	(1,0)	(1,0)	(1,0)	(1,0)	(1,0)	
L1D 494>	(1,0)	(1,0)	(1,0)	(1,0)	(1,0)	(1,0)	(1,0)	(1,0)	(1,0)	(1,0)	(1,0)	(1,0)	(1,0)	(1,0)	(1,0)	(1,0)	
L1D 495>	(1,0)	(1,0)	(1,0)	(1,0)	(1,0)	(1,0)	(1,0)	(1,0)	(1,0)	(1,0)	(1,0)	(1,0)	(1,0)	(1,0)	(1,0)	(1,0)	
L1D 496>	(1,0)	(1,0)	(1,0)	(1,0)	(1,0)	(1,0)	(1,0)	(1,0)	(1,0)	(1,0)	(1,0)	(1,0)	(1,0)	(1,0)	(1,0)	(1,0)	
L1D 497>	(1,0)	(1,0)	(1,0)	(1,0)	(1,0)	(1,0)	(1,0)	(1,0)	(1,0)	(1,0)	(1,0)	(1,0)	(1,0)	(1,0)	(1,0)	(1,0)	
L1D 498>	(1,0)	(1,0)	(1,0)	(1,0)	(1,0)	(1,0)	(1,0)	(1,0)	(1,0)	(1,0)	(1,0)	(1,0)	(1,0)	(1,0)	(1,0)	(1,0)	
L1D 499>	(1,0)	(1,0)	(1,0)	(1,0)	(1,0)	(1,0)	(1,0)	(1,0)	(1,0)	(1,0)	(1,0)	(1,0)	(1,0)	(1,0)	(1,0)	(1,0)	
L1D 500>	(1,0)	(1,0)	(1,0)	(1,0)	(1,0)	(1,0)	(1,0)	(1,0)	(1,0)	(1,0)	(1,0)	(1,0)	(1,0)	(1,0)	(1,0)	(1,0)	
L1D 501>	(1,0)	(1,0)	(1,0)	(1,0)	(1,0)	(1,0)	(1,0)	(1,0)	(1,0)	(1,0)	(1,0)	(1,0)	(1,0)	(1,0)	(1,0)	(1,0)	
L1D 502>	(1,0)	(1,0)	(1,0)	(1,0)	(1,0)	(1,0)	(1,0)	(1,0)	(1,0)	(1,0)	(1,0)	(1,0)	(1,0)	(1,0)	(1,0)	(1,0)	
L1D 503>	(1,0)	(1,0)	(1,0)	(1,0)	(1,0)	(1,0)	(1,0)	(1,0)	(1,0)	(1,0)	(1,0)	(1,0)	(1,0)	(1,0)	(1,0)	(1,0)	
L1D 504>	(1,0)	(1,0)	(1,0)	(1,0)	(1,0)	(1,0)	(1,0)	(1,0)	(1,0)	(1,0)	(1,0)	(1,0)	(1,0)	(1,0)	(1,0)	(1,0)	
L1D 505>	(1,0)	(1,0)	(1,0)	(1,0)	(1,0)	(1,0)	(1,0)	(1,0)	(1,0)	(1,0)	(1,0)	(1,0)	(1,0)	(1,0)	(1,0)	(1,0)	
L1D 506>	(1,0)	(1,0)	(1,0)	(1,0)	(1,0)	(1,0)	(1,0)	(1,0)	(1,0)	(1,0)	(1,0)	(1,0)	(1,0)	(1,0)	(1,0)	(1,0)	
L1D 507>	(1,0)	(1,0)	(1,0)	(1,0)	(1,0)	(1,0)	(1,0)	(1,0)	(1,0)	(1,0)	(1,0)	(1,0)	(1,0)	(1,0)	(1,0)	(1,0)	
L1D 508>	(1,0)	(1,0)	(1,0)	(1,0)	(1,0)	(1,0)	(1,0)	(1,0)	(1,0)	(1,0)	(1,0)	(1,0)	(1,0)	(1,0)	(1,0)	(1,0)	
L1D 509>	(1,0)	(1,0)	(1,0)	(1,0)	(1,0)	(1,0)	(1,0)	(1,0)	(1,0)	(1,0)	(1,0)	(1,0)	(1,0)	(1,0)	(1,0)	(1,0)	
L1D 510>	(1,0)	(1,0)	(1,0)	(1,0)	(1,0)	(1,0)	(1,0)	(1,0)	(1,0)	(1,0)	(1,0)	(1,0)	(1,0)	(1,0)	(1,0)	(1,0)	
L1D 511>	(1,0)	(1,0)	(1,0)	(1,0)	(1,0)	(1,0)	(1,0)	(1,0)	(1,0)	(1,0)	(1,0)	(1,0)	(1,0)	(1,0)	(1,0)	(1,0)	

L2C -64>	(1,79)	(-21,145)	(0,185)	(22,241)	(43,75)	(-22,37)	(21,64)	(-1,164)	(-4,82)	(-43,16)	(3,9)	(-5,218)	(20,1)	(-2,128)	(-3,125)	(39,15)	
L2C -63>	(1,2)	(43,3)	(22,2)	(3,2)	(51,1)	(20,2)	(8,7)	(14,1)	(13,1)	(2,1)	(1,0)	(1,0)	(1,0)	(1,0)	(1,0)	(1,0)	
L2C -62>	(1,1)	(38,1)	(41,1)	(39,1)	(22,1)	(1,0)	(1,0)	(1,0)	(1,0)	(1,0)	(1,0)	(1,0)	(1,0)	(1,0)	(1,0)	(1,0)	
L2C -61>	(39,2)	(-1,1)	(-2,1)	(1,1)	(1,0)	(1,0)	(1,0)	(1,0)	(1,0)	(1,0)	(1,0)	(1,0)	(1,0)	(1,0)	(1,0)	(1,0)	
L2C -60>	(1,2)	(5,4)	(11,2)	(15,5)	(45,1)	(1,0)	(1,0)	(1,0)	(1,0)	(1,0)	(1,0)	(1,0)	(1,0)	(1,0)	(1,0)	(1,0)	
L2C -59>	(-1,5)	(44,8)	(-2,1)	(8,1)	(1,0)	(1,0)	(1,0)	(1,0)	(1,0)	(1,0)	(1,0)	(1,0)	(1,0)	(1,0)	(1,0)	(1,0)	
L2C -58>	(1,6)	(42,1)	(1,0)	(1,0)	(1,0)	(1,0)	(1,0)	(1,0)	(1,0)	(1,0)	(1,0)	(1,0)	(1,0)	(1,0)	(1,0)	(1,0)	
L2C -57>	(1,210)	(1,0)	(1,0)	(1,0)	(1,0)	(1,0)	(1,0)	(1,0)	(1,0)	(1,0)	(1,0)	(1,0)	(1,0)	(1,0)	(1,0)	(1,0)	
L2C -56>	(29,2)	(37,1)	(1,0)	(1,0)	(1,0)	(1,0)	(1,0)	(1,0)	(1,0)	(1,0)	(1,0)	(1,0)	(1,0)	(1,0)	(1,0)	(1,0)	
L2C -55>	(12,1)	(-8,1)	(1,1)	(43,1)	(40,1)	(1,0)	(1,0)	(1,0)	(1,0)	(1,0)	(1,0)	(1,0)	(1,0)	(1,0)	(1,0)	(1,0)	
L2C -54>	(42,1)	(44,1)	(-5,3)	(1,0)	(1,0)	(1,0)	(1,0)	(1,0)	(1,0)	(1,0)	(1,0)	(1,0)	(1,0)	(1,0)	(1,0)	(1,0)	
L2C -53>	(50,3)	(1,2)	(49,1)	(21,1)	(8,1)	(2,2)	(1,0)	(1,0)	(1,0)	(1,0)	(1,0)	(1,0)	(1,0)	(1,0)	(1,0)	(1,0)	
L2C -52>	(2,3)	(1,2)	(3,2)	(50,1)	(49,1)	(37,1)	(48,1)	(8,1)	(43,1)	(5,1)	(1,0)	(1,0)	(1,0)	(1,0)	(1,0)	(1,0)	
L2C -51>	(1,5)	(0,1)	(3,7)	(8,15)	(-12,1)	(51,1)	(7,1)	(21,1)	(22,1)	(2,1)	(1,0)	(1,0)	(1,0)	(1,0)	(1,0)	(1,0)	
L2C -50>	(1,4)	(50,3)	(5,8)	(49,2)	(45,2)	(48,1)	(11,1)	(8,1)	(38,1)	(2,3)	(35,4)	(13,2)	(43,1)	(17,1)	(15,1)	(1,0)	
L2C -49>	(1,11)	(5,1)	(49,4)	(61,1)	(4,1)	(43,9)	(44,106)	(48,2)	(50,1)	(45,1)	(-2,1)	(28,5)	(8,1)	(34,2)	(24,1)	(1,0)	
L2C -48>	(1,76)	(48,7)	(44,9)	(22,111)	(-1,24)	(11,1)	(43,203)	(21,15)	(42,18)	(-6,7)	(35,7)	(0,6)	(8,2)	(15,9)	(5,9)	(10,2)	
L2C -47>	(1,60)	(42,25)	(21,38)	(0,42)	(43,126)	(-4,1)	(22,75)	(47,1)	(49,6)	(48,8)	(-1,23)	(44,18)	(23,1)	(-2,1)	(30,1)	(24,1)	
L2C -46>	(42,14)	(21,13)	(1,166)	(22,147)	(43,255)	(25,1)	(-1,6)	(0,26)	(44,31)	(2,3)	(-2,1)	(19,1)	(49,1)	(4,1)	(6,1)	(47,6)	
L2C -45>	(22,86)	(42,50)	(21,39)	(1,119)	(30,2)	(43,212)	(-1,79)	(24,13)	(36,1)	(2,8)	(44,20)	(0,29)	(46,29)	(3,1)	(15,6)	(10,2)	
L2C -44>	(22,84)	(1,195)	(43,174)	(23,35)	(0,9)	(-1,25)	(2,4)	(42,12)	(46,2)	(21,14)	(44,53)	(3,1)	(-2,4)	(45,25)	(8,1)	(20,1)	
L2C -43>	(21,109)	(43,49)	(22,184)	(1,62)	(44,42)	(42,16)	(-1,18)	(-3,0)	(23,7)	(2,0)	(45,1)	(41,1)	(29,0)	(24,1)	(15,0)	(5,0)	
L2C -42>	(46,1)	(1,49)	(21,143)	(42,1)	(3,0)	(-1,115)	(43,78)	(23,1)	(8,0)	(20,13)	(22,131)	(0,9)	(4,1)	(44,10)	(2,4)	(41,1)	
L2C -41>	(22,99)	(2,7)	(1,203)	(42,29)	(-2,53)	(20,43)	(3,7)	(19,31)	(4,30)	(41,8)	(21,12)	(40,5)	(-1,8)	(-3,17)	(43,3)	(18,1)	
L2C -40>	(1,70)	(-3,31)	(2,6)	(19,60)	(40,12)	(3,3)	(18,16)	(5,28)	(-2,5)	(0,3)	(22,9)	(20,3)	(41,21)	(38,1)	(35,2)	(39,4)	
L2C -39>	(21,2)	(7,4)	(1,42)	(-3,3)	(2,2)	(45,3)	(-4,12)	(-9,1)	(16,3)	(40,5)	(17,3)	(-5,19)	(18,4)	(-7,3)	(39,5)	(-2,18)	
L2C -38>	(1,31)	(16,18)	(-4,2)	(10,2)	(-7,8)	(35,10)	(-13,2)	(23,8)	(37,4)	(17,14)	(22,17)	(-5,20)	(36,43)	(30,6)	(39,1)	(12,1)	
L2C -37>	(38,1)	(14,34)	(-1,22)	(-6,49)	(1,14)	(-5,5)	(34,7)	(8,39)	(15,7)	(30,10)	(39,14)	(21,47)	(29,13)	(7,10)	(36,19)	(22,46)	
L2C -36>	(35,48)	(15,8)	(-1,3)	(38,12)	(-8,4)	(12,5)	(37,16)	(1,16)	(8,9)	(0,5)	(29,9)	(4,1)	(25,2)	(7,49)	(-6,11)	(22,10)	
L2C -35>	(16,6)	(-1,8)	(6,1)	(-6,12)	(1,7)	(30,8)	(28,140)	(37,12)	(34,25)	(5,5)	(38,8)	(14,25)	(13,7)	(22,29)	(0,51)	(21,18)	
L2C -34>	(36,8)	(1,201)	(-1,4)	(18,1)	(30,1)	(34,2)	(42,1)	(0,1)	(27,0)	(10,0)	(-9,0)	(35,2)	(13,1)	(11,0)	(5,0)	(-10,0)	
L2C -33>	(37,8)	(0,1)	(33,34)	(27,11)	(35,46)	(-9,3)	(4,1)	(34,8)	(-10,6)	(32,9)	(11,7)	(-1,2)	(-3,9)	(1,4)	(5,6)	(-5,1)	
L2C -32>	(1,7)	(33,4)	(-11,1)	(31,2)	(14,2)	(-6,4)	(12,1)	(21,2)	(42,1)	(28,3)	(29,1)	(-1,2)	(-2,1)	(19,2)	(0,1)	(30,3)	
L2C -31>	(1,7)	(28,113)	(29,7)	(23,18)	(14,40)	(16,40)	(22,20)	(17,1)	(30,8)	(11,8)	(8,14)	(15,3)	(21,5)	(7,1)	(9,3)	(13,2)	
L2C -30>	(1,15)	(30,31)	(27,5)	(29,75)	(16,6)	(45,9)	(35,5)	(7,4)	(-3,26)	(8,25)	(9,11)	(-2,1)	(31,19)	(-7,67)	(23,12)	(17,2)	
L2C -29>	(23,9)	(14,66)	(29,10)	(1,12)	(7,13)	(16,19)	(22,15)	(8,23)	(35,7)	(-5,1)	(9,12)	(2,2)	(28,45)	(0,2)	(36,3)	(31,10)	
L2C -28>	(27,22)	(14,6)	(15,11)	(-8,9)	(-7,15)	(35,29)	(21,1)	(7,6)	(24,3)	(26,2)	(29,26)	(8,10)	(13,5)	(28,28)	(36,14)	(9,13)	
L2C -27>	(7,19)	(22,247)	(43,225)	(21,50)	(1,141)	(26,9)	(12,11)	(35,11)	(-21,175)	(0,65)	(29,17)	(-22,144)	(28,1)	(20,9)	(44,14)	(27,20)	
L2C -26>	(22,57)	(43,115)	(1,178)	(2,9)	(21,202)	(42,22)	(-1,77)	(-21,76)	(20,9)	(26,10)	(44,6)	(27,9)	(0,40)	(28,8)	(-22,104)	(-20,1)	
L2C -25>	(0,50)	(21,87)	(43,142)	(-22,140)	(44,115)	(1,181)	(22,156)	(-21,143)	(42,8)	(25,16)	(2,13)	(20,23)	(26,23)	(-1,33)	(-20,1)	(-19,2)	
L2C -24>	(21,138)	(25,21)	(22,126)	(43,242)	(-22,142)	(-21,127)	(1,159)	(42,14)	(-1,28)	(27,8)	(0,49)	(44,16)	(2,4)	(26,1)	(3,7)	(46,7)	
L2C -23>	(21,148)	(2,25)	(45,26)	(-1,84)	(1,245)	(42,48)	(43,159)	(-22,112)	(22,130)	(-21,131)	(0,51)	(24,55)	(44,21)	(-15,1)	(3,9)	(20,4)	
L2C -22>	(-21,175)	(43,176)	(21,103)	(22,230)	(1,247)	(44,36)	(-22,40)	(-1,3)	(0,3)	(23,41)	(42,5)	(-12,1)	(41,1)	(2,3)	(45,2)	(-20,15)	
L2C -21>	(43,75)	(-1,57)	(22,254)	(-21,40)	(-22,64)	(21,92)	(0,14)	(42,29)	(41,12)	(-24,6)	(1,50)	(40,8)	(-23,5)	(4,1)	(19,19)	(20,18)	
L2C -20>	(1,249)	(-1,60)	(27,4)	(21,52)	(20,16)	(22,111)	(-23,11)	(4,9)	(2,17)	(19,32)	(-2,20)	(42,17)	(43,1)	(-21,53)	(-22,9)	(28,6)	
L2C -19>	(34,2)	(-21,9)	(13,223)	(22,12)	(1,32)	(38,3)	(27,1)	(-3,10)	(2,4)	(-24,3)	(20,4)	(18,6)	(-2,7)	(48,1)	(42,1)	(3,2)	
L2C -18>	(-1,7)	(17,5)	(1,228)	(-25,20)	(39,9)	(19,43)	(2,28)	(37,2)	(-24,11)	(-3,49)	(16,4)	(18,10)	(0,12)	(40,7)	(-4,29)	(-27,4)	
L2C -17>	(1,105)	(16,11)	(-5,52)	(0,14)	(18,18)	(15,7)	(-25,7)	(-21,11)	(-14,14)	(-6,7)	(38,3)	(-4,15)	(9,6)	(-7,11)	(7,17)	(39,1)	
L2C -16>	(28,32)	(10,17)	(1,50)	(-1,5)	(-2,5)	(2,1)	(-7,13)	(-5,112)	(16,144)	(17,22)	(0,80)	(14,20)	(6,15)	(44,7)	(7,82)	(22,10)	
L2C -15>	(15,49)	(3,1)	(-5,55)	(1,46)	(13,6)	(5,4)	(22,15)	(6,20)	(21,17)	(2,15)	(-14,41)	(29,6)	(17,44)	(14,30)	(7,191)	(-7,11)	
L2C -14>	(8,132)	(-21,9)	(7,37)	(-1,40)	(22,64)	(-7,10)	(17,6)	(1,190)	(14,17)	(33,1)	(-19,23)	(2,8)	(13,55)	(-9,12)	(0,15)	(15,27)	
L2C -13>	(21,43)	(-1,82)	(33,6)	(22,20)	(35,1)	(-8,54)	(-9,59)	(-2,15)	(-20,6)	(37,31)	(12,57)	(7,58)	(28,25)	(36,33)	(13,13)	(14,45)	
L2C -12>	(6,20)	(8,10)	(10,8)	(36,1)	(20,7)	(1,17)	(11,52)	(12,144)	(-9,8)	(7,41)	(0,11)	(-2,29)	(19,12)	(-1,22)	(26,12)	(13,16)	
L2C -11>	(5,8)	(-1,4)	(0,2)	(11,5)	(1,15)	(7,4)	(35,3)	(34,3)	(-6,2)	(-5,2)	(10,22)	(14,1)	(9,3)	(-24,1)	(-10,2)	(12,22)	
L2C -10>	(1,22)	(-20,6)	(2,7)	(0,20)	(9,4)	(8,13)	(4,1)	(22,15)	(-7,10)	(-1,15)	(7,7)	(20,3)	(-14,18)	(10,10)	(14,4)	(31,2)	
L2C -9>	(1,56)	(15,8)	(22,74)	(28,8)	(14,4)	(10,13)	(-1,28)	(-15,6)	(21,67)	(7,34)	(-7,26)	(-28,1)	(8,79)	(0,26)	(9,51)	(-21,75)	
L2C -8>	(1,133)	(14,9)	(42,5)	(-15,19)	(8,147)	(7,165)	(21,119)	(29,14)	(6,35)	(-13,35)	(-1,72)	(-7,127)	(28,1)	(15,22)	(-16,7)	(4,14)	
L2C -7>	(-13,43)	(1,166)	(15,84)	(-1,62)	(7,199)	(8,64)	(36,217)	(0,42)	(-2,22)	(-29,51)	(16,1)	(-22,12)	(-15,91)	(14,157)	(-7,136)	(2,67)	
L2C -6>	(5,5)	(-1,4)	(1,183)	(14,4)	(15,1)	(19,1)	(-43,1)	(-21,12)	(13,2)	(16,1)	(22,7)	(7,5)	(-5,3)	(0,1)	(6,11)	(-2,3)	
L2C -5>	(-1,57)	(1,152)	(22,11)	(21,17)	(43,9)	(0,171)	(-43,2)	(-11,2)	(-21,26)	(-9,2)	(-37,7)	(-22,19)	(-38,2)	(5,4)	(6,1)	(40,1)	
L2C -4>	(-31,9)	(-21,35)	(1,154)	(5,8)	(0,124)	(-1,12)	(21,7)	(43,8)	(-22,19)	(25,1)	(22,9)	(3,2)	(4,5)	(-3,6)	(2,1)	(-42,4)	
L2C -3>	(1,245)	(44,12)	(-22,20)	(-42,7)	(0,133)	(22,34)	(2,15)	(-21,254)	(23,2)	(21,9)	(-43,11)	(43,8)	(4,5)	(-1,13)	(-14,2)	(25,1)	
L2C -2>	(43,2)	(0,83)	(1,170)	(2,3)	(22,8)	(-21,72)	(4,1)	(-19,1)	(24,1)	(-1,13)	(-4,1)	(-22,78)	(3,3)	(-42,2)	(21,17)	(5,1)	
L2C -1>	(44,32)	(22,87)	(-21,136)	(-1,4)	(-30,0)	(21,9)	(1,108)	(0,63)	(16,1)	(-43,9)	(-22,28)	(2,13)	(-20,9)	(43,3)	(15,1)	(-42,3)	
L2C 0>	(-21,9)	(15,1)	(-22,6)	(5,2)	(0,212)	(42,0)	(1,160)	(2,0)	(-1,7)	(-43,27)	(21,2)	(-42,9)	(22,3)	(34,0)	(-5,1)	(35,0)	
L2C 1>	(1,145)	(0,13)	(-1,8)	(-22,14)	(17,1)	(-21,4)	(9,9)	(3,2)	(23,9)	(19,1)	(4,2)	(42,3)	(22,8)	(-2,5)	(-3,1)	(21,5)	
L2C 2>	(1,25)	(-37,1)	(8,157)	(12,1)	(22,2)	(-23,2)	(3,3)	(13,2)	(-1,1)	(-5,7)	(-21,4)	(-8,4)	(2,2)	(-2,5)	(-3,2)	(19,3)	
L2C 3>	(-14,1)	(-25,2)	(2,194)	(18,1)	(1,6)	(37,2)	(-4,2)	(19,1)	(16,2)	(-27,1)	(39,1)	(-16,1)	(-5,10)	(5,0)	(17,1)	(-26,2)	
L2C 4>	(1,227)	(-13,1)	(-7,2)	(17,6)	(-9,2)	(37,8)	(2,3)	(4,1)	(16,15)	(-6,13)	(38,5)	(-2,1)	(-4,7)	(-5,77)	(-27,12)	(-26,5)	
L2C 5>	(-6,41)	(0,10)	(1,32)	(6,1)	(-21,5)	(-15,3)	(-5,181)	(38,12)	(-27,21)	(35,4)	(-14,7)	(7,7)	(-7,13)	(43,13)	(-12,7)	(29,3)	
L2C 6>	(-7,46)	(1,99)	(6,15)	(-19,5)	(14,8)	(-1,36)	(-8,22)	(-5,10)	(7,30)	(2,13)	(-6,173)	(-21,25)	(28,12)	(-9,19)	(-35,20)	(-27,1)	
L2C 7>	(-1,190)	(4,1)	(-6,19)	(-8,42)	(-21,41)	(28,23)	(13,19)	(-22,23)	(1,233)	(35,13)	(7,40)	(22,19)	(0,81)	(15,20)	(-7,174)	(2,41)	
L2C 8>	(1,250)	(-29,3)	(28,1)	(7,1)	(21,1)	(-37,2)	(-14,1)	(-30,1)	(-21,2)	(37,2)	(-8,2)	(-1,3)	(-44,7)	(-22,2)	(20,2)	(-35,3)	
L2C 9>	(3,158)	(-30,0)	(-31,0)	(-23,0)	(14,0)	(-8,0)	(-1,0)	(5,0)	(4,0)	(7,0)	(-37,0)	(27,0)	(1,1)	(1,0)	(1,0)	(1,0)	
L2C 10>	(-10,7)	(1,34)	(5,41)	(-1,10)	(22,7)	(4,12)	(-15,1)	(-9,29)	(-19,2)	(36,26)	(23,2)	(-38,2)	(-2,5)	(33,62)	(-16,95)	(18,16)	
L2C 11>	(0,8)	(1,96)	(-2,7)	(-30,3)	(-1,9)	(-5,5)	(22,5)	(-6,7)	(28,8)	(-61,1)	(16,8)	(15,4)	(-25,2)	(10,7)	(8,27)	(34,2)	
L2C 12>	(-7,27)	(1,105)	(-1,22)	(-12,121)	(-35,19)	(-21,13)	(-13,46)	(-48,13)	(8,6)	(-14,131)	(22,6)	(-6,16)	(-8,4)	(-53,1)	(0,24)	(7,18)	
L2C 13>	(1,170)	(-6,2)	(8,3)	(-13,4)	(-1,1)	(0,3)	(-15,1)	(-21,5)	(4,1)	(-5,3)	(-34,0)	(-16,2)	(-25,0)	(-14,10)	(-2,0)	(-22,4)	
L2C 14>	(28,44)	(7,51)	(2,54)	(9,39)	(6,6)	(-6,38)	(0,54)	(-13,49)	(22,6)	(13,43)	(1,211)	(-7,127)	(-2,15)	(17,1)	(-35,18)	(-1,74)	
L2C 15>	(-14,63)	(-1,65)	(0,36)	(-7,42)	(7,24)	(-2,37)	(27,12)	(-13,15)	(6,9)	(-21,10)	(4,7)	(14,6)	(-15,48)	(-4,8)	(1,81)	(5,1)	
L2C 16>	(-14,12)	(-15,3)	(0,89)	(1,53)	(12,11)	(-21,170)	(21,8)	(-22,9)	(-42,4)	(-16,31)	(-7,1)	(-43,19)	(-2,23)	(6,4)	(7,13)	(22,32)	
L2C 17>	(-15,2)	(-31,13)	(22,19)	(-42,5)	(4,2)	(-16,23)	(-8,4)	(-22,162)	(1,47)	(-21,100)	(-10,1)	(-1,22)	(21,34)	(-2,2)	(0,134)	(-43,21)	
L2C 18>	(-22,157)	(-21,243)	(-42,43)	(-17,36)	(1,81)	(23,4)	(-43,49)	(21,23)	(-6,1)	(20,5)	(-2,2)	(-16,2)	(22,51)	(-1,14)	(-14,5)	(0,37)	
L2C 19>	(-21,211)	(21,7)	(-22,179)	(-7,1)	(3,1)	(0,40)	(1,36)	(-18,7)	(-44,2)	(-1,15)	(-43,28)	(-40,3)	(-42,6)	(22,5)	(2,1)	(19,1)	
L2C 20>	(-1,30)	(21,6)	(0,39)	(-43,43)	(22,22)	(15,2)	(-22,215)	(-21,241)	(-19,18)	(1,79)	(2,7)	(-42,3)	(28,1)	(-41,14)	(-16,1)	(-23,5)	
L2C 21>	(-43,63)	(-22,94)	(1,155)	(22,64)	(-21,149)	(21,25)	(-42,21)	(-2,0)	(2,5)	(-13,0)	(-20,28)	(0,31)	(-1,7)	(23,5)	(-6,2)	(-29,0)	
L2C 22>	(21,36)	(-1,10)	(-43,17)	(-22,37)	(19,9)	(-21,180)	(2,1)	(0,9)	(-2,6)	(20,7)	(-24,4)	(22,13)	(-45,3)	(-3,3)	(-44,5)	(1,11)	
L2C 23>	(19,3)	(-57,208)	(1,19)	(-45,3)	(-21,25)	(-4,1)	(-22,16)	(-43,1)	(20,5)	(-1,6)	(-3,4)	(22,8)	(21,3)	(-20,0)	(-2,1)	(-44,6)	
L2C 24>	(-46,33)	(-23,60)	(-9,18)	(1,163)	(22,42)	(18,1)	(20,18)	(11,2)	(-21,87)	(-45,26)	(-2,96)	(-3,50)	(19,85)	(3,20)	(2,16)	(10,3)	
L2C 25>	(-25,21)	(1,80)	(0,51)	(18,21)	(-5,54)	(-12,6)	(-1,7)	(-3,15)	(2,3)	(-24,13)	(-23,2)	(-47,11)	(-14,4)	(-13,1)	(-46,17)	(-4,5)	
L2C 26>	(-21,5)	(-25,13)	(-27,7)	(-48,8)	(-7,11)	(1,52)	(16,6)	(0,8)	(-5,14)	(-11,4)	(-22,3)	(-14,1)	(17,13)	(-6,4)	(-15,3)	(-19,2)	
L2C 27>	(-6,26)	(16,35)	(1,16)	(-35,30)	(-34,106)	(-13,6)	(-7,20)	(-21,20)	(-29,11)	(-5,41)	(-26,38)	(2,40)	(-8,27)	(-3,5)	(-49,1)	(-1,25)	
L2C 28>	(-9,14)	(-20,1)	(-1,28)	(-36,4)	(6,36)	(1,37)	(-15,66)	(8,9)	(-13,50)	(-29,35)	(-22,11)	(-26,13)	(2,129)	(-14,218)	(-4,14)	(-7,17)	
L2C 29>	(-42,16)	(-35,8)	(-8,47)	(1,20)	(-15,77)	(-43,16)	(0,27)	(-5,17)	(-1,12)	(-20,12)	(-44,15)	(-21,13)	(-37,7)	(-6,7)	(3,1)	(-7,25)	
L2C 30>	(12,4)	(2,14)	(-30,16)	(-44,1)	(-9,3)	(-2,2)	(1,14)	(-22,4)	(-16,22)	(-27,4)	(-1,6)	(5,3)	(15,4)	(-10,2)	(-35,9)	(-7,3)	
L2C 31>	(-4,3)	(-16,6)	(-2,1)	(1,8)	(-43,2)	(-30,1)	(-48,3)	(-38,30)	(-22,1)	(-20,1)	(-17,12)	(-6,2)	(-18,1)	(-21,1)	(-9,7)	(-39,2)	
L2C 32>	(-23,1)	(-1,6)	(-5,2)	(-3,1)	(-2,3)	(1,9)	(-21,5)	(-20,2)	(-22,1)	(-6,2)	(8,18)	(9,1)	(2,3)	(-36,1)	(-17,5)	(-14,2)	
L2C 33>	(1,9)	(-48,13)	(-33,29)	(-42,20)	(-5,5)	(-1,7)	(0,14)	(-14,7)	(12,17)	(-7,6)	(-36,5)	(-43,1)	(9,7)	(-30,6)	(-21,16)	(2,17)	
L2C 34>	(-40,7)	(-22,16)	(-44,3)	(-23,3)	(-27,4)	(-20,26)	(-35,1)	(-21,21)	(1,27)	(-31,2)	(-28,4)	(-12,2)	(-26,3)	(-14,10)	(-15,6)	(-7,8)	
L2C 35>	(-30,35)	(-7,19)	(-27,23)	(-20,19)	(-28,19)	(-22,21)	(1,16)	(-36,16)	(-35,62)	(-1,12)	(-41,1)	(2,69)	(-45,27)	(-44,13)	(-21,10)	(-14,8)	
L2C 36>	(-23,17)	(1,27)	(-37,77)	(-43,121)	(-42,39)	(-1,29)	(-8,35)	(-5,67)	(-3,12)	(-22,10)	(2,56)	(-21,6)	(-34,6)	(-30,3)	(8,1)	(-45,25)	
L2C 37>	(1,12)	(-42,38)	(-21,100)	(-38,4)	(-45,7)	(0,8)	(-8,11)	(-4,15)	(-3,18)	(-36,3)	(-41,1)	(-19,3)	(-43,24)	(-46,3)	(-9,30)	(-2,5)	
L2C 38>	(-46,16)	(-22,255)	(-43,178)	(0,47)	(1,26)	(-1,29)	(-4,10)	(-21,187)	(-44,25)	(-20,1)	(-16,5)	(-14,2)	(12,25)	(-3,3)	(-25,2)	(-47,6)	
L2C 39>	(-22,62)	(-1,18)	(0,9)	(-21,102)	(-44,15)	(1,36)	(-43,39)	(-31,5)	(-20,3)	(2,2)	(-38,28)	(-42,4)	(11,1)	(-17,3)	(9,1)	(-4,4)	
L2C 40>	(-21,226)	(-37,1)	(-39,6)	(-43,57)	(-22,43)	(0,31)	(-20,3)	(-35,2)	(1,68)	(-1,5)	(-33,4)	(-44,6)	(-34,1)	(-42,10)	(-18,1)	(2,3)	
L2C 41>	(-21,141)	(-22,128)	(-44,10)	(-43,56)	(-40,17)	(0,23)	(1,58)	(-23,5)	(-1,30)	(-42,10)	(-35,1)	(2,2)	(-19,18)	(-34,1)	(-17,1)	(3,0)	
L2C 42>	(1,77)	(0,34)	(-21,152)	(-43,45)	(-42,29)	(-20,31)	(-2,3)	(-22,35)	(-41,11)	(2,5)	(-1,8)	(4,1)	(3,0)	(-39,0)	(-19,1)	(-44,2)	
L2C 43>	(-21,154)	(-41,1)	(-22,104)	(-42,52)	(1,56)	(-20,2)	(-1,9)	(0,11)	(-44,5)	(2,1)	(12,1)	(-16,0)	(-43,1)	(-37,1)	(-2,0)	(-19,0)	
L2C 44>	(-43,54)	(-1,92)	(-22,185)	(-42,1)	(0,23)	(-21,43)	(1,70)	(-35,0)	(-4,0)	(-39,0)	(-36,2)	(-2,0)	(2,0)	(-45,0)	(-23,0)	(-44,0)	
L2C 45>	(-21,60)	(1,206)	(4,6)	(-3,6)	(-2,61)	(-1,35)	(-44,23)	(-5,1)	(-60,2)	(2,7)	(3,3)	(-22,4)	(-23,7)	(-40,2)	(-15,6)	(-35,4)	
L2C 46>	(1,76)	(-45,25)	(-3,64)	(-5,1)	(-21,5)	(-38,2)	(-2,35)	(-46,6)	(-1,4)	(-47,1)	(3,10)	(2,11)	(-24,13)	(-27,1)	(-34,5)	(-4,2)	
L2C 47>	(-8,1)	(1,37)	(-4,9)	(-20,1)	(-46,3)	(-1,1)	(-47,1)	(-25,3)	(-3,6)	(-45,11)	(-6,1)	(-5,2)	(2,4)	(-40,1)	(-34,5)	(12,1)	
L2C 48>	(-41,1)	(-43,4)	(1,16)	(-47,9)	(-50,1)	(-49,2)	(-45,2)	(-5,11)	(-60,2)	(-40,2)	(-34,3)	(-48,5)	(-36,1)	(0,1)	(-46,3)	(-6,1)	
L2C 49>	(-21,2)	(-44,1)	(1,10)	(-50,2)	(-43,2)	(-48,3)	(-20,1)	(-5,14)	(-49,1)	(0,1)	(-6,6)	(-27,1)	(1,0)	(1,0)	(1,0)	(1,0)	
L2C 50>	(-32,1)	(-34,1)	(1,5)	(0,3)	(-45,3)	(-50,1)	(-13,2)	(-15,2)	(-14,1)	(-63,1)	(-60,1)	(-23,1)	(1,0)	(1,0)	(1,0)	(1,0)	
L2C 51>	(1,1)	(12,3)	(-43,2)	(-2,1)	(-51,1)	(-36,1)	(-1,1)	(-50,1)	(1,0)	(1,0)	(1,0)	(1,0)	(1,0)	(1,0)	(1,0)	(1,0)	
L2C 52>	(-22,1)	(1,0)	(1,0)	(1,0)	(1,0)	(1,0)	(1,0)	(1,0)	(1,0)	(1,0)	(1,0)	(1,0)	(1,0)	(1,0)	(1,0)	(1,0)	
L2C 53>	(-18,1)	(1,0)	(1,0)	(1,0)	(1,0)	(1,0)	(1,0)	(1,0)	(1,0)	(1,0)	(1,0)	(1,0)	(1,0)	(1,0)	(1,0)	(1,0)	
L2C 54>	(-31,1)	(-1,1)	(1,0)	(1,0)	(1,0)	(1,0)	(1,0)	(1,0)	(1,0)	(1,0)	(1,0)	(1,0)	(1,0)	(1,0)	(1,0)	(1,0)	
L2C 55>	(-57,1)	(-15,2)	(-49,1)	(1,0)	(1,0)	(1,0)	(1,0)	(1,0)	(1,0)	(1,0)	(1,0)	(1,0)	(1,0)	(1,0)	(1,0)	(1,0)	
L2C 56>	(1,0)	(1,0)	(1,0)	(1,0)	(1,0)	(1,0)	(1,0)	(1,0)	(1,0)	(1,0)	(1,0)	(1,0)	(1,0)	(1,0)	(1,0)	(1,0)	
L2C 57>	(-35,1)	(1,0)	(1,0)	(1,0)	(1,0)	(1,0)	(1,0)	(1,0)	(1,0)	(1,0)	(1,0)	(1,0)	(1,0)	(1,0)	(1,0)	(1,0)	
L2C 58>	(1,0)	(1,0)	(1,0)	(1,0)	(1,0)	(1,0)	(1,0)	(1,0)	(1,0)	(1,0)	(1,0)	(1,0)	(1,0)	(1,0)	(1,0)	(1,0)	
L2C 59>	(-43,1)	(1,0)	(1,0)	(1,0)	(1,0)	(1,0)	(1,0)	(1,0)	(1,0)	(1,0)	(1,0)	(1,0)	(1,0)	(1,0)	(1,0)	(1,0)	
L2C 60>	(-21,3)	(-43,1)	(-61,1)	(-22,2)	(-59,1)	(1,0)	(1,0)	(1,0)	(1,0)	(1,0)	(1,0)	(1,0)	(1,0)	(1,0)	(1,0)	(1,0)	
L2C 61>	(1,1)	(-44,4)	(-22,2)	(-21,8)	(-43,1)	(1,0)	(1,0)	(1,0)	(1,0)	(1,0)	(1,0)	(1,0)	(1,0)	(1,0)	(1,0)	(1,0)	
L2C 62>	(-21,2)	(-22,3)	(1,0)	(1,0)	(1,0)	(1,0)	(1,0)	(1,0)	(1,0)	(1,0)	(1,0)	(1,0)	(1,0)	(1,0)	(1,0)	(1,0)	
L2C 63>	(-21,1)	(-22,1)	(-41,1)	(1,0)	(1,0)	(1,0)	(1,0)	(1,0)	(1,0)	(1,0)	(1,0)	(1,0)	(1,0)	(1,0)	(1,0)	(1,0)	

DRAM Statistics
 CHANNEL 0
 RQ ROW_BUFFER_HIT:      10638  ROW_BUFFER_MISS:      15335
 DBUS_CONGESTED:      10479
 WQ ROW_BUFFER_HIT:         60  ROW_BUFFER_MISS:        327  FULL:          0

 AVG_CONGESTED_CYCLE: 6
