
*** ChampSim Multicore Out-of-Order Simulator ***

Warmup Instructions: 1000000
Simulation Instructions: 10000000
Number of CPUs: 1
LLC sets: 2048
LLC ways: 16
Off-chip DRAM Size: 4096 MB Channels: 1 Width: 64-bit Data Rate: 3200 MT/s

CPU 0 runs /home/virtualcse/Data-Prefetching/ChampSim/dpc3_traces/620.omnetpp_s-141B.champsimtrace.xz
Ultra pref. initializing...
Ultra pref. initialized
Ultra pref. initializing...
Ultra pref. initialized

Warmup complete CPU 0 instructions: 1000001 cycles: 540323 (Simulation time: 0 hr 0 min 3 sec) 

Heartbeat CPU 0 instructions: 10000000 cycles: 24705201 heartbeat IPC: 0.404773 cumulative IPC: 0.372441 (Simulation time: 0 hr 0 min 27 sec) 
Finished CPU 0 instructions: 10000000 cycles: 26877869 cumulative IPC: 0.372053 (Simulation time: 0 hr 0 min 30 sec) 

CPU 0 Branch Prediction Accuracy: 96.1891% MPKI: 5.6957 Average ROB Occupancy at Mispredict: 86.5942

ChampSim completed all CPUs

Region of Interest Statistics

CPU 0 cumulative IPC: 0.372053 instructions: 10000000 cycles: 26877869
L1D TOTAL     ACCESS:    8799497  HIT:    8291031  MISS:     508466
L1D LOAD      ACCESS:    2276987  HIT:    2124933  MISS:     152054
L1D RFO       ACCESS:    1791394  HIT:    1774479  MISS:      16915
L1D PREFETCH  ACCESS:    4731116  HIT:    4391619  MISS:     339497
L1D WRITEBACK ACCESS:          0  HIT:          0  MISS:          0
L1D PREFETCH  REQUESTED:   44730762  ISSUED:   39747571  USEFUL:      52707  USELESS:     319338
L1D AVERAGE MISS LATENCY: 149.226 cycles
L1I TOTAL     ACCESS:    1095295  HIT:    1089124  MISS:       6171
L1I LOAD      ACCESS:    1095295  HIT:    1089124  MISS:       6171
L1I RFO       ACCESS:          0  HIT:          0  MISS:          0
L1I PREFETCH  ACCESS:          0  HIT:          0  MISS:          0
L1I WRITEBACK ACCESS:          0  HIT:          0  MISS:          0
L1I PREFETCH  REQUESTED:          0  ISSUED:          0  USEFUL:          0  USELESS:          0
L1I AVERAGE MISS LATENCY: 47.6934 cycles
L2C TOTAL     ACCESS:    2166290  HIT:    1200698  MISS:     965592
L2C LOAD      ACCESS:     153696  HIT:      63558  MISS:      90138
L2C RFO       ACCESS:      16498  HIT:       6871  MISS:       9627
L2C PREFETCH  ACCESS:    1893173  HIT:    1028224  MISS:     864949
L2C WRITEBACK ACCESS:     102923  HIT:     102045  MISS:        878
L2C PREFETCH  REQUESTED:    6359600  ISSUED:    4529056  USEFUL:      25432  USELESS:     899454
L2C AVERAGE MISS LATENCY: 221.709 cycles
LLC TOTAL     ACCESS:    1046957  HIT:     239003  MISS:     807954
LLC LOAD      ACCESS:      87546  HIT:      21488  MISS:      66058
LLC RFO       ACCESS:       9325  HIT:       1715  MISS:       7610
LLC PREFETCH  ACCESS:     867840  HIT:     135098  MISS:     732742
LLC WRITEBACK ACCESS:      82246  HIT:      80702  MISS:       1544
LLC PREFETCH  REQUESTED:          0  ISSUED:          0  USEFUL:       4885  USELESS:     758704
LLC AVERAGE MISS LATENCY: 209.949 cycles
Major fault: 0 Minor fault: 23836

L1D -512>	(3,7)	(0,74)	(-1,12)	(4,23)	(13,1)	(68,3)	(2,2)	(-2,3)	(10,1)	(464,0)	(-10,0)	(-9,1)	(-20,1)	(60,0)	(1,36)	(5,12)	
L1D -511>	(1,0)	(1,0)	(1,0)	(1,0)	(1,0)	(1,0)	(1,0)	(1,0)	(1,0)	(1,0)	(1,0)	(1,0)	(1,0)	(1,0)	(1,0)	(1,0)	
L1D -510>	(1,0)	(1,0)	(1,0)	(1,0)	(1,0)	(1,0)	(1,0)	(1,0)	(1,0)	(1,0)	(1,0)	(1,0)	(1,0)	(1,0)	(1,0)	(1,0)	
L1D -509>	(1,0)	(1,0)	(1,0)	(1,0)	(1,0)	(1,0)	(1,0)	(1,0)	(1,0)	(1,0)	(1,0)	(1,0)	(1,0)	(1,0)	(1,0)	(1,0)	
L1D -508>	(1,0)	(1,0)	(1,0)	(1,0)	(1,0)	(1,0)	(1,0)	(1,0)	(1,0)	(1,0)	(1,0)	(1,0)	(1,0)	(1,0)	(1,0)	(1,0)	
L1D -507>	(1,0)	(1,0)	(1,0)	(1,0)	(1,0)	(1,0)	(1,0)	(1,0)	(1,0)	(1,0)	(1,0)	(1,0)	(1,0)	(1,0)	(1,0)	(1,0)	
L1D -506>	(122,1)	(1,0)	(1,0)	(1,0)	(1,0)	(1,0)	(1,0)	(1,0)	(1,0)	(1,0)	(1,0)	(1,0)	(1,0)	(1,0)	(1,0)	(1,0)	
L1D -505>	(1,0)	(1,0)	(1,0)	(1,0)	(1,0)	(1,0)	(1,0)	(1,0)	(1,0)	(1,0)	(1,0)	(1,0)	(1,0)	(1,0)	(1,0)	(1,0)	
L1D -504>	(85,2)	(0,1)	(1,0)	(1,0)	(1,0)	(1,0)	(1,0)	(1,0)	(1,0)	(1,0)	(1,0)	(1,0)	(1,0)	(1,0)	(1,0)	(1,0)	
L1D -503>	(0,1)	(1,0)	(1,0)	(1,0)	(1,0)	(1,0)	(1,0)	(1,0)	(1,0)	(1,0)	(1,0)	(1,0)	(1,0)	(1,0)	(1,0)	(1,0)	
L1D -502>	(99,1)	(112,1)	(0,1)	(1,0)	(1,0)	(1,0)	(1,0)	(1,0)	(1,0)	(1,0)	(1,0)	(1,0)	(1,0)	(1,0)	(1,0)	(1,0)	
L1D -501>	(-6,1)	(342,1)	(4,1)	(1,0)	(1,0)	(1,0)	(1,0)	(1,0)	(1,0)	(1,0)	(1,0)	(1,0)	(1,0)	(1,0)	(1,0)	(1,0)	
L1D -500>	(4,1)	(1,0)	(1,0)	(1,0)	(1,0)	(1,0)	(1,0)	(1,0)	(1,0)	(1,0)	(1,0)	(1,0)	(1,0)	(1,0)	(1,0)	(1,0)	
L1D -499>	(29,1)	(1,0)	(1,0)	(1,0)	(1,0)	(1,0)	(1,0)	(1,0)	(1,0)	(1,0)	(1,0)	(1,0)	(1,0)	(1,0)	(1,0)	(1,0)	
L1D -498>	(146,1)	(85,2)	(1,0)	(1,0)	(1,0)	(1,0)	(1,0)	(1,0)	(1,0)	(1,0)	(1,0)	(1,0)	(1,0)	(1,0)	(1,0)	(1,0)	
L1D -497>	(1,0)	(1,0)	(1,0)	(1,0)	(1,0)	(1,0)	(1,0)	(1,0)	(1,0)	(1,0)	(1,0)	(1,0)	(1,0)	(1,0)	(1,0)	(1,0)	
L1D -496>	(135,1)	(1,0)	(1,0)	(1,0)	(1,0)	(1,0)	(1,0)	(1,0)	(1,0)	(1,0)	(1,0)	(1,0)	(1,0)	(1,0)	(1,0)	(1,0)	
L1D -495>	(0,1)	(146,1)	(1,0)	(1,0)	(1,0)	(1,0)	(1,0)	(1,0)	(1,0)	(1,0)	(1,0)	(1,0)	(1,0)	(1,0)	(1,0)	(1,0)	
L1D -494>	(0,1)	(112,2)	(9,1)	(1,0)	(1,0)	(1,0)	(1,0)	(1,0)	(1,0)	(1,0)	(1,0)	(1,0)	(1,0)	(1,0)	(1,0)	(1,0)	
L1D -493>	(1,1)	(0,1)	(1,0)	(1,0)	(1,0)	(1,0)	(1,0)	(1,0)	(1,0)	(1,0)	(1,0)	(1,0)	(1,0)	(1,0)	(1,0)	(1,0)	
L1D -492>	(0,2)	(1,0)	(1,0)	(1,0)	(1,0)	(1,0)	(1,0)	(1,0)	(1,0)	(1,0)	(1,0)	(1,0)	(1,0)	(1,0)	(1,0)	(1,0)	
L1D -491>	(-1,2)	(1,0)	(1,0)	(1,0)	(1,0)	(1,0)	(1,0)	(1,0)	(1,0)	(1,0)	(1,0)	(1,0)	(1,0)	(1,0)	(1,0)	(1,0)	
L1D -490>	(98,1)	(47,1)	(1,0)	(1,0)	(1,0)	(1,0)	(1,0)	(1,0)	(1,0)	(1,0)	(1,0)	(1,0)	(1,0)	(1,0)	(1,0)	(1,0)	
L1D -489>	(-3,1)	(1,0)	(1,0)	(1,0)	(1,0)	(1,0)	(1,0)	(1,0)	(1,0)	(1,0)	(1,0)	(1,0)	(1,0)	(1,0)	(1,0)	(1,0)	
L1D -488>	(-3,1)	(115,1)	(99,1)	(1,0)	(1,0)	(1,0)	(1,0)	(1,0)	(1,0)	(1,0)	(1,0)	(1,0)	(1,0)	(1,0)	(1,0)	(1,0)	
L1D -487>	(304,1)	(0,1)	(1,0)	(1,0)	(1,0)	(1,0)	(1,0)	(1,0)	(1,0)	(1,0)	(1,0)	(1,0)	(1,0)	(1,0)	(1,0)	(1,0)	
L1D -486>	(99,1)	(55,1)	(18,1)	(0,1)	(5,1)	(79,1)	(1,0)	(1,0)	(1,0)	(1,0)	(1,0)	(1,0)	(1,0)	(1,0)	(1,0)	(1,0)	
L1D -485>	(346,1)	(0,2)	(1,1)	(1,0)	(1,0)	(1,0)	(1,0)	(1,0)	(1,0)	(1,0)	(1,0)	(1,0)	(1,0)	(1,0)	(1,0)	(1,0)	
L1D -484>	(82,1)	(70,1)	(85,3)	(10,1)	(47,1)	(1,0)	(1,0)	(1,0)	(1,0)	(1,0)	(1,0)	(1,0)	(1,0)	(1,0)	(1,0)	(1,0)	
L1D -483>	(322,1)	(1,0)	(1,0)	(1,0)	(1,0)	(1,0)	(1,0)	(1,0)	(1,0)	(1,0)	(1,0)	(1,0)	(1,0)	(1,0)	(1,0)	(1,0)	
L1D -482>	(98,1)	(38,1)	(354,1)	(-25,1)	(-6,1)	(1,0)	(1,0)	(1,0)	(1,0)	(1,0)	(1,0)	(1,0)	(1,0)	(1,0)	(1,0)	(1,0)	
L1D -481>	(0,2)	(4,1)	(1,0)	(1,0)	(1,0)	(1,0)	(1,0)	(1,0)	(1,0)	(1,0)	(1,0)	(1,0)	(1,0)	(1,0)	(1,0)	(1,0)	
L1D -480>	(99,2)	(3,1)	(34,1)	(1,0)	(1,0)	(1,0)	(1,0)	(1,0)	(1,0)	(1,0)	(1,0)	(1,0)	(1,0)	(1,0)	(1,0)	(1,0)	
L1D -479>	(146,1)	(479,1)	(0,1)	(1,0)	(1,0)	(1,0)	(1,0)	(1,0)	(1,0)	(1,0)	(1,0)	(1,0)	(1,0)	(1,0)	(1,0)	(1,0)	
L1D -478>	(34,1)	(95,1)	(1,0)	(1,0)	(1,0)	(1,0)	(1,0)	(1,0)	(1,0)	(1,0)	(1,0)	(1,0)	(1,0)	(1,0)	(1,0)	(1,0)	
L1D -477>	(1,0)	(1,0)	(1,0)	(1,0)	(1,0)	(1,0)	(1,0)	(1,0)	(1,0)	(1,0)	(1,0)	(1,0)	(1,0)	(1,0)	(1,0)	(1,0)	
L1D -476>	(91,1)	(3,1)	(-2,1)	(0,1)	(1,0)	(1,0)	(1,0)	(1,0)	(1,0)	(1,0)	(1,0)	(1,0)	(1,0)	(1,0)	(1,0)	(1,0)	
L1D -475>	(5,1)	(-2,1)	(4,1)	(1,0)	(1,0)	(1,0)	(1,0)	(1,0)	(1,0)	(1,0)	(1,0)	(1,0)	(1,0)	(1,0)	(1,0)	(1,0)	
L1D -474>	(4,1)	(0,1)	(1,0)	(1,0)	(1,0)	(1,0)	(1,0)	(1,0)	(1,0)	(1,0)	(1,0)	(1,0)	(1,0)	(1,0)	(1,0)	(1,0)	
L1D -473>	(52,1)	(1,0)	(1,0)	(1,0)	(1,0)	(1,0)	(1,0)	(1,0)	(1,0)	(1,0)	(1,0)	(1,0)	(1,0)	(1,0)	(1,0)	(1,0)	
L1D -472>	(4,1)	(1,0)	(1,0)	(1,0)	(1,0)	(1,0)	(1,0)	(1,0)	(1,0)	(1,0)	(1,0)	(1,0)	(1,0)	(1,0)	(1,0)	(1,0)	
L1D -471>	(1,1)	(0,1)	(262,1)	(1,0)	(1,0)	(1,0)	(1,0)	(1,0)	(1,0)	(1,0)	(1,0)	(1,0)	(1,0)	(1,0)	(1,0)	(1,0)	
L1D -470>	(45,1)	(0,3)	(124,1)	(34,1)	(1,2)	(121,1)	(370,1)	(1,0)	(1,0)	(1,0)	(1,0)	(1,0)	(1,0)	(1,0)	(1,0)	(1,0)	
L1D -469>	(350,1)	(23,1)	(1,0)	(1,0)	(1,0)	(1,0)	(1,0)	(1,0)	(1,0)	(1,0)	(1,0)	(1,0)	(1,0)	(1,0)	(1,0)	(1,0)	
L1D -468>	(0,1)	(69,1)	(103,1)	(1,0)	(1,0)	(1,0)	(1,0)	(1,0)	(1,0)	(1,0)	(1,0)	(1,0)	(1,0)	(1,0)	(1,0)	(1,0)	
L1D -467>	(1,1)	(1,0)	(1,0)	(1,0)	(1,0)	(1,0)	(1,0)	(1,0)	(1,0)	(1,0)	(1,0)	(1,0)	(1,0)	(1,0)	(1,0)	(1,0)	
L1D -466>	(490,1)	(4,1)	(1,0)	(1,0)	(1,0)	(1,0)	(1,0)	(1,0)	(1,0)	(1,0)	(1,0)	(1,0)	(1,0)	(1,0)	(1,0)	(1,0)	
L1D -465>	(2,1)	(386,2)	(5,1)	(146,1)	(1,1)	(1,0)	(1,0)	(1,0)	(1,0)	(1,0)	(1,0)	(1,0)	(1,0)	(1,0)	(1,0)	(1,0)	
L1D -464>	(-1,1)	(0,4)	(2,1)	(4,1)	(1,1)	(252,1)	(1,0)	(1,0)	(1,0)	(1,0)	(1,0)	(1,0)	(1,0)	(1,0)	(1,0)	(1,0)	
L1D -463>	(1,1)	(17,1)	(1,0)	(1,0)	(1,0)	(1,0)	(1,0)	(1,0)	(1,0)	(1,0)	(1,0)	(1,0)	(1,0)	(1,0)	(1,0)	(1,0)	
L1D -462>	(69,1)	(218,1)	(89,1)	(1,1)	(1,0)	(1,0)	(1,0)	(1,0)	(1,0)	(1,0)	(1,0)	(1,0)	(1,0)	(1,0)	(1,0)	(1,0)	
L1D -461>	(17,1)	(428,1)	(1,1)	(430,1)	(108,1)	(1,0)	(1,0)	(1,0)	(1,0)	(1,0)	(1,0)	(1,0)	(1,0)	(1,0)	(1,0)	(1,0)	
L1D -460>	(1,1)	(0,1)	(34,1)	(382,1)	(1,0)	(1,0)	(1,0)	(1,0)	(1,0)	(1,0)	(1,0)	(1,0)	(1,0)	(1,0)	(1,0)	(1,0)	
L1D -459>	(0,1)	(1,2)	(146,1)	(300,1)	(1,0)	(1,0)	(1,0)	(1,0)	(1,0)	(1,0)	(1,0)	(1,0)	(1,0)	(1,0)	(1,0)	(1,0)	
L1D -458>	(456,2)	(91,1)	(0,4)	(48,1)	(-6,1)	(1,0)	(1,0)	(1,0)	(1,0)	(1,0)	(1,0)	(1,0)	(1,0)	(1,0)	(1,0)	(1,0)	
L1D -457>	(1,0)	(1,0)	(1,0)	(1,0)	(1,0)	(1,0)	(1,0)	(1,0)	(1,0)	(1,0)	(1,0)	(1,0)	(1,0)	(1,0)	(1,0)	(1,0)	
L1D -456>	(1,2)	(66,1)	(89,1)	(376,1)	(1,0)	(1,0)	(1,0)	(1,0)	(1,0)	(1,0)	(1,0)	(1,0)	(1,0)	(1,0)	(1,0)	(1,0)	
L1D -455>	(68,13)	(54,1)	(1,0)	(1,0)	(1,0)	(1,0)	(1,0)	(1,0)	(1,0)	(1,0)	(1,0)	(1,0)	(1,0)	(1,0)	(1,0)	(1,0)	
L1D -454>	(0,18)	(1,35)	(108,1)	(79,1)	(50,2)	(57,2)	(1,0)	(1,0)	(1,0)	(1,0)	(1,0)	(1,0)	(1,0)	(1,0)	(1,0)	(1,0)	
L1D -453>	(0,1)	(17,1)	(118,1)	(1,0)	(1,0)	(1,0)	(1,0)	(1,0)	(1,0)	(1,0)	(1,0)	(1,0)	(1,0)	(1,0)	(1,0)	(1,0)	
L1D -452>	(0,1)	(1,2)	(83,1)	(426,1)	(-1,1)	(124,1)	(1,0)	(1,0)	(1,0)	(1,0)	(1,0)	(1,0)	(1,0)	(1,0)	(1,0)	(1,0)	
L1D -451>	(2,2)	(-12,1)	(70,1)	(5,1)	(1,0)	(1,0)	(1,0)	(1,0)	(1,0)	(1,0)	(1,0)	(1,0)	(1,0)	(1,0)	(1,0)	(1,0)	
L1D -450>	(97,1)	(366,1)	(203,1)	(38,1)	(4,1)	(0,5)	(1,1)	(1,0)	(1,0)	(1,0)	(1,0)	(1,0)	(1,0)	(1,0)	(1,0)	(1,0)	
L1D -449>	(68,107)	(0,3)	(1,1)	(386,1)	(5,1)	(1,0)	(1,0)	(1,0)	(1,0)	(1,0)	(1,0)	(1,0)	(1,0)	(1,0)	(1,0)	(1,0)	
L1D -448>	(-1,1)	(68,6)	(1,1)	(4,1)	(31,1)	(106,1)	(57,1)	(69,1)	(438,1)	(1,0)	(1,0)	(1,0)	(1,0)	(1,0)	(1,0)	(1,0)	
L1D -447>	(1,1)	(0,2)	(71,1)	(1,0)	(1,0)	(1,0)	(1,0)	(1,0)	(1,0)	(1,0)	(1,0)	(1,0)	(1,0)	(1,0)	(1,0)	(1,0)	
L1D -446>	(77,3)	(0,1)	(278,1)	(4,1)	(1,2)	(108,1)	(1,0)	(1,0)	(1,0)	(1,0)	(1,0)	(1,0)	(1,0)	(1,0)	(1,0)	(1,0)	
L1D -445>	(0,3)	(68,1)	(1,1)	(458,1)	(23,1)	(2,1)	(-10,1)	(1,0)	(1,0)	(1,0)	(1,0)	(1,0)	(1,0)	(1,0)	(1,0)	(1,0)	
L1D -444>	(1,1)	(71,1)	(69,2)	(0,2)	(272,1)	(1,0)	(1,0)	(1,0)	(1,0)	(1,0)	(1,0)	(1,0)	(1,0)	(1,0)	(1,0)	(1,0)	
L1D -443>	(1,2)	(5,1)	(1,0)	(1,0)	(1,0)	(1,0)	(1,0)	(1,0)	(1,0)	(1,0)	(1,0)	(1,0)	(1,0)	(1,0)	(1,0)	(1,0)	
L1D -442>	(0,4)	(399,1)	(1,1)	(-7,1)	(1,0)	(1,0)	(1,0)	(1,0)	(1,0)	(1,0)	(1,0)	(1,0)	(1,0)	(1,0)	(1,0)	(1,0)	
L1D -441>	(-1,1)	(60,1)	(70,1)	(-10,1)	(1,0)	(1,0)	(1,0)	(1,0)	(1,0)	(1,0)	(1,0)	(1,0)	(1,0)	(1,0)	(1,0)	(1,0)	
L1D -440>	(95,1)	(-1,1)	(3,1)	(0,1)	(77,1)	(63,1)	(2,1)	(1,0)	(1,0)	(1,0)	(1,0)	(1,0)	(1,0)	(1,0)	(1,0)	(1,0)	
L1D -439>	(1,2)	(0,2)	(-4,1)	(35,2)	(1,0)	(1,0)	(1,0)	(1,0)	(1,0)	(1,0)	(1,0)	(1,0)	(1,0)	(1,0)	(1,0)	(1,0)	
L1D -438>	(4,2)	(14,1)	(0,2)	(247,1)	(61,2)	(34,1)	(1,1)	(1,0)	(1,0)	(1,0)	(1,0)	(1,0)	(1,0)	(1,0)	(1,0)	(1,0)	
L1D -437>	(5,2)	(0,2)	(394,1)	(2,1)	(-2,1)	(29,1)	(1,0)	(1,0)	(1,0)	(1,0)	(1,0)	(1,0)	(1,0)	(1,0)	(1,0)	(1,0)	
L1D -436>	(-1,1)	(73,1)	(410,1)	(63,2)	(0,1)	(107,1)	(69,1)	(1,0)	(1,0)	(1,0)	(1,0)	(1,0)	(1,0)	(1,0)	(1,0)	(1,0)	
L1D -435>	(1,1)	(190,1)	(276,2)	(0,2)	(-58,1)	(-6,1)	(410,1)	(23,1)	(1,0)	(1,0)	(1,0)	(1,0)	(1,0)	(1,0)	(1,0)	(1,0)	
L1D -434>	(1,2)	(-1,1)	(0,4)	(398,1)	(5,2)	(-11,1)	(101,1)	(69,1)	(1,0)	(1,0)	(1,0)	(1,0)	(1,0)	(1,0)	(1,0)	(1,0)	
L1D -433>	(5,1)	(0,1)	(364,1)	(328,1)	(1,0)	(1,0)	(1,0)	(1,0)	(1,0)	(1,0)	(1,0)	(1,0)	(1,0)	(1,0)	(1,0)	(1,0)	
L1D -432>	(38,1)	(3,2)	(10,1)	(91,1)	(0,3)	(1,1)	(61,1)	(52,1)	(-20,1)	(2,2)	(26,1)	(1,0)	(1,0)	(1,0)	(1,0)	(1,0)	
L1D -431>	(23,1)	(17,1)	(0,2)	(1,1)	(47,2)	(1,0)	(1,0)	(1,0)	(1,0)	(1,0)	(1,0)	(1,0)	(1,0)	(1,0)	(1,0)	(1,0)	
L1D -430>	(0,2)	(169,1)	(418,1)	(26,1)	(69,1)	(92,1)	(-2,1)	(63,1)	(286,1)	(32,1)	(100,1)	(1,0)	(1,0)	(1,0)	(1,0)	(1,0)	
L1D -429>	(-29,1)	(56,1)	(0,1)	(238,1)	(431,2)	(29,1)	(411,1)	(1,0)	(1,0)	(1,0)	(1,0)	(1,0)	(1,0)	(1,0)	(1,0)	(1,0)	
L1D -428>	(412,1)	(408,1)	(4,1)	(61,3)	(0,4)	(360,1)	(250,1)	(1,1)	(89,1)	(1,0)	(1,0)	(1,0)	(1,0)	(1,0)	(1,0)	(1,0)	
L1D -427>	(28,124)	(47,1)	(0,4)	(5,5)	(2,2)	(1,2)	(56,1)	(-5,1)	(382,1)	(386,1)	(1,0)	(1,0)	(1,0)	(1,0)	(1,0)	(1,0)	
L1D -426>	(1,45)	(27,56)	(4,9)	(0,7)	(57,1)	(420,1)	(69,1)	(17,1)	(5,1)	(40,4)	(3,1)	(54,1)	(-47,1)	(406,1)	(37,1)	(464,1)	
L1D -425>	(388,1)	(1,1)	(5,2)	(412,1)	(0,2)	(2,2)	(91,1)	(1,0)	(1,0)	(1,0)	(1,0)	(1,0)	(1,0)	(1,0)	(1,0)	(1,0)	
L1D -424>	(406,1)	(0,3)	(53,1)	(428,1)	(412,1)	(1,1)	(1,0)	(1,0)	(1,0)	(1,0)	(1,0)	(1,0)	(1,0)	(1,0)	(1,0)	(1,0)	
L1D -423>	(1,1)	(0,3)	(5,3)	(-10,3)	(2,1)	(382,1)	(32,1)	(17,1)	(-2,1)	(1,0)	(1,0)	(1,0)	(1,0)	(1,0)	(1,0)	(1,0)	
L1D -422>	(2,59)	(34,2)	(406,1)	(37,1)	(421,1)	(410,2)	(418,1)	(0,2)	(-79,1)	(1,0)	(1,0)	(1,0)	(1,0)	(1,0)	(1,0)	(1,0)	
L1D -421>	(1,3)	(421,1)	(422,2)	(2,3)	(368,1)	(1,0)	(1,0)	(1,0)	(1,0)	(1,0)	(1,0)	(1,0)	(1,0)	(1,0)	(1,0)	(1,0)	
L1D -420>	(1,1)	(0,5)	(421,4)	(402,2)	(394,1)	(420,2)	(388,1)	(53,1)	(-4,1)	(383,1)	(248,1)	(1,0)	(1,0)	(1,0)	(1,0)	(1,0)	
L1D -419>	(1,3)	(11,2)	(5,1)	(419,6)	(26,1)	(56,1)	(420,3)	(0,1)	(1,0)	(1,0)	(1,0)	(1,0)	(1,0)	(1,0)	(1,0)	(1,0)	
L1D -418>	(45,1)	(0,2)	(34,1)	(418,8)	(376,1)	(306,1)	(46,1)	(1,3)	(392,1)	(419,3)	(3,1)	(326,1)	(160,1)	(94,1)	(1,0)	(1,0)	
L1D -417>	(-10,97)	(31,1)	(0,0)	(417,0)	(1,0)	(1,0)	(1,0)	(1,0)	(1,0)	(1,0)	(1,0)	(1,0)	(1,0)	(1,0)	(1,0)	(1,0)	
L1D -416>	(0,1)	(415,1)	(53,1)	(416,6)	(5,1)	(1,1)	(404,1)	(58,1)	(-20,1)	(417,2)	(324,1)	(-46,1)	(1,0)	(1,0)	(1,0)	(1,0)	
L1D -415>	(1,2)	(0,3)	(36,1)	(415,5)	(362,1)	(38,1)	(445,1)	(-1,1)	(62,1)	(2,1)	(414,1)	(1,0)	(1,0)	(1,0)	(1,0)	(1,0)	
L1D -414>	(414,5)	(69,1)	(61,2)	(5,3)	(1,4)	(0,3)	(238,1)	(17,1)	(34,1)	(11,1)	(2,1)	(38,1)	(-28,1)	(100,1)	(53,1)	(402,2)	
L1D -413>	(1,7)	(2,5)	(413,5)	(-7,1)	(0,2)	(412,1)	(-1,1)	(153,1)	(394,1)	(414,1)	(11,3)	(5,1)	(1,0)	(1,0)	(1,0)	(1,0)	
L1D -412>	(61,1)	(0,5)	(310,1)	(412,10)	(-1,1)	(413,2)	(146,1)	(394,4)	(5,1)	(1,0)	(1,0)	(1,0)	(1,0)	(1,0)	(1,0)	(1,0)	
L1D -411>	(0,108)	(160,1)	(-7,13)	(4,0)	(1,0)	(1,0)	(1,0)	(1,0)	(1,0)	(1,0)	(1,0)	(1,0)	(1,0)	(1,0)	(1,0)	(1,0)	
L1D -410>	(53,1)	(410,8)	(0,7)	(1,3)	(146,1)	(5,1)	(384,1)	(420,1)	(103,1)	(3,1)	(-10,1)	(-1,1)	(1,0)	(1,0)	(1,0)	(1,0)	
L1D -409>	(410,1)	(7,1)	(15,1)	(0,2)	(409,4)	(366,1)	(-1,1)	(1,1)	(1,0)	(1,0)	(1,0)	(1,0)	(1,0)	(1,0)	(1,0)	(1,0)	
L1D -408>	(390,2)	(0,6)	(409,4)	(1,2)	(344,1)	(37,1)	(38,1)	(-1,1)	(408,1)	(1,0)	(1,0)	(1,0)	(1,0)	(1,0)	(1,0)	(1,0)	
L1D -407>	(1,5)	(0,4)	(56,2)	(407,3)	(388,1)	(454,1)	(-7,1)	(198,1)	(2,1)	(374,1)	(-13,1)	(1,0)	(1,0)	(1,0)	(1,0)	(1,0)	
L1D -406>	(-1,1)	(124,1)	(394,8)	(1,5)	(397,1)	(0,7)	(2,1)	(406,5)	(407,1)	(10,1)	(268,1)	(420,1)	(1,0)	(1,0)	(1,0)	(1,0)	
L1D -405>	(1,5)	(0,4)	(405,2)	(385,1)	(2,3)	(406,1)	(3,1)	(17,1)	(5,2)	(1,0)	(1,0)	(1,0)	(1,0)	(1,0)	(1,0)	(1,0)	
L1D -404>	(-1,1)	(405,3)	(-28,1)	(8,1)	(392,4)	(0,8)	(382,2)	(-10,2)	(2,1)	(1,1)	(404,1)	(-15,1)	(1,0)	(1,0)	(1,0)	(1,0)	
L1D -403>	(1,3)	(-1,1)	(15,2)	(403,2)	(0,2)	(27,1)	(368,1)	(61,1)	(409,1)	(1,0)	(1,0)	(1,0)	(1,0)	(1,0)	(1,0)	(1,0)	
L1D -402>	(0,6)	(238,1)	(-70,1)	(68,1)	(-56,1)	(402,4)	(-2,1)	(1,4)	(396,1)	(-1,2)	(390,2)	(382,1)	(4,1)	(388,1)	(6,1)	(1,0)	
L1D -401>	(2,2)	(401,5)	(-10,3)	(0,2)	(1,2)	(11,2)	(56,1)	(1,0)	(1,0)	(1,0)	(1,0)	(1,0)	(1,0)	(1,0)	(1,0)	(1,0)	
L1D -400>	(400,4)	(0,7)	(392,1)	(-1,1)	(401,4)	(374,1)	(3,2)	(406,1)	(-86,1)	(260,1)	(399,1)	(1,2)	(16,1)	(1,0)	(1,0)	(1,0)	
L1D -399>	(1,2)	(5,2)	(0,4)	(400,1)	(17,1)	(399,1)	(-27,30)	(16,1)	(396,1)	(-1,1)	(1,0)	(1,0)	(1,0)	(1,0)	(1,0)	(1,0)	
L1D -398>	(-84,1)	(-95,1)	(502,1)	(1,3)	(386,1)	(406,1)	(0,5)	(32,1)	(17,1)	(398,4)	(85,1)	(388,1)	(395,1)	(146,1)	(-8,1)	(182,1)	
L1D -397>	(398,2)	(1,1)	(0,1)	(397,3)	(2,1)	(26,1)	(-43,1)	(1,0)	(1,0)	(1,0)	(1,0)	(1,0)	(1,0)	(1,0)	(1,0)	(1,0)	
L1D -396>	(1,4)	(0,4)	(28,1)	(396,5)	(397,3)	(-58,1)	(-1,1)	(5,1)	(424,1)	(1,0)	(1,0)	(1,0)	(1,0)	(1,0)	(1,0)	(1,0)	
L1D -395>	(1,1)	(83,1)	(395,4)	(2,1)	(0,2)	(17,1)	(27,1)	(5,1)	(-1,1)	(-61,1)	(1,0)	(1,0)	(1,0)	(1,0)	(1,0)	(1,0)	
L1D -394>	(37,1)	(376,3)	(0,6)	(71,1)	(-1,2)	(1,3)	(3,1)	(394,3)	(330,1)	(-78,1)	(1,0)	(1,0)	(1,0)	(1,0)	(1,0)	(1,0)	
L1D -393>	(1,1)	(393,4)	(2,4)	(0,2)	(422,1)	(5,1)	(1,0)	(1,0)	(1,0)	(1,0)	(1,0)	(1,0)	(1,0)	(1,0)	(1,0)	(1,0)	
L1D -392>	(393,4)	(392,1)	(366,1)	(0,1)	(160,1)	(1,4)	(5,2)	(391,1)	(2,1)	(380,1)	(1,0)	(1,0)	(1,0)	(1,0)	(1,0)	(1,0)	
L1D -391>	(1,1)	(29,1)	(392,2)	(391,2)	(-60,2)	(1,0)	(1,0)	(1,0)	(1,0)	(1,0)	(1,0)	(1,0)	(1,0)	(1,0)	(1,0)	(1,0)	
L1D -390>	(-2,1)	(389,2)	(386,1)	(-10,2)	(24,1)	(391,1)	(390,5)	(5,1)	(392,1)	(0,6)	(2,1)	(1,2)	(258,1)	(-1,1)	(324,1)	(364,1)	
L1D -389>	(0,3)	(-4,1)	(1,2)	(390,2)	(414,1)	(-69,1)	(-1,1)	(1,0)	(1,0)	(1,0)	(1,0)	(1,0)	(1,0)	(1,0)	(1,0)	(1,0)	
L1D -388>	(0,4)	(126,1)	(380,3)	(5,1)	(388,1)	(389,4)	(376,1)	(352,1)	(1,1)	(1,0)	(1,0)	(1,0)	(1,0)	(1,0)	(1,0)	(1,0)	
L1D -387>	(1,4)	(114,21)	(388,1)	(387,1)	(152,1)	(-10,1)	(0,3)	(56,2)	(-41,1)	(386,1)	(414,1)	(1,0)	(1,0)	(1,0)	(1,0)	(1,0)	
L1D -386>	(386,73)	(0,0)	(-31,10)	(-1,0)	(1,0)	(1,0)	(1,0)	(1,0)	(1,0)	(1,0)	(1,0)	(1,0)	(1,0)	(1,0)	(1,0)	(1,0)	
L1D -385>	(-6,1)	(17,1)	(386,1)	(385,3)	(150,1)	(0,4)	(1,0)	(1,0)	(1,0)	(1,0)	(1,0)	(1,0)	(1,0)	(1,0)	(1,0)	(1,0)	
L1D -384>	(1,3)	(5,1)	(372,2)	(406,1)	(68,1)	(26,1)	(351,1)	(385,2)	(410,1)	(403,1)	(1,0)	(1,0)	(1,0)	(1,0)	(1,0)	(1,0)	
L1D -383>	(0,4)	(90,2)	(383,4)	(382,1)	(-1,1)	(1,0)	(1,0)	(1,0)	(1,0)	(1,0)	(1,0)	(1,0)	(1,0)	(1,0)	(1,0)	(1,0)	
L1D -382>	(394,1)	(388,2)	(0,3)	(382,3)	(26,1)	(32,1)	(146,1)	(-94,1)	(1,0)	(1,0)	(1,0)	(1,0)	(1,0)	(1,0)	(1,0)	(1,0)	
L1D -381>	(0,4)	(114,110)	(152,7)	(126,1)	(82,2)	(35,1)	(29,1)	(44,1)	(85,1)	(414,1)	(382,1)	(-4,1)	(1,0)	(1,0)	(1,0)	(1,0)	
L1D -380>	(-1,1)	(381,2)	(0,3)	(6,2)	(-38,1)	(1,2)	(342,1)	(18,1)	(380,3)	(24,1)	(218,1)	(1,0)	(1,0)	(1,0)	(1,0)	(1,0)	
L1D -379>	(380,1)	(379,2)	(0,3)	(-5,1)	(1,2)	(186,1)	(-21,1)	(2,1)	(146,1)	(1,0)	(1,0)	(1,0)	(1,0)	(1,0)	(1,0)	(1,0)	
L1D -378>	(3,1)	(-1,1)	(0,4)	(160,1)	(-98,1)	(128,1)	(-14,1)	(378,1)	(1,1)	(1,0)	(1,0)	(1,0)	(1,0)	(1,0)	(1,0)	(1,0)	
L1D -377>	(1,2)	(0,3)	(5,1)	(366,1)	(344,1)	(110,4)	(377,5)	(1,0)	(1,0)	(1,0)	(1,0)	(1,0)	(1,0)	(1,0)	(1,0)	(1,0)	
L1D -376>	(0,5)	(-6,1)	(14,1)	(377,3)	(1,2)	(364,1)	(382,1)	(1,0)	(1,0)	(1,0)	(1,0)	(1,0)	(1,0)	(1,0)	(1,0)	(1,0)	
L1D -375>	(1,3)	(338,1)	(87,1)	(375,3)	(0,4)	(124,1)	(448,1)	(1,0)	(1,0)	(1,0)	(1,0)	(1,0)	(1,0)	(1,0)	(1,0)	(1,0)	
L1D -374>	(6,2)	(1,5)	(2,2)	(0,5)	(18,1)	(30,1)	(50,2)	(1,0)	(1,0)	(1,0)	(1,0)	(1,0)	(1,0)	(1,0)	(1,0)	(1,0)	
L1D -373>	(1,2)	(0,3)	(3,1)	(102,1)	(6,1)	(373,2)	(4,1)	(5,1)	(1,0)	(1,0)	(1,0)	(1,0)	(1,0)	(1,0)	(1,0)	(1,0)	
L1D -372>	(3,2)	(0,4)	(2,2)	(-50,1)	(5,3)	(1,3)	(126,1)	(482,1)	(-45,1)	(1,0)	(1,0)	(1,0)	(1,0)	(1,0)	(1,0)	(1,0)	
L1D -371>	(72,10)	(1,5)	(371,4)	(-1,1)	(0,6)	(127,1)	(-7,1)	(60,1)	(195,1)	(56,1)	(416,1)	(1,0)	(1,0)	(1,0)	(1,0)	(1,0)	
L1D -370>	(6,1)	(370,4)	(1,3)	(0,2)	(8,1)	(192,1)	(-2,1)	(2,1)	(1,0)	(1,0)	(1,0)	(1,0)	(1,0)	(1,0)	(1,0)	(1,0)	
L1D -369>	(39,1)	(2,4)	(4,1)	(0,1)	(369,1)	(-7,1)	(412,1)	(-1,1)	(1,0)	(1,0)	(1,0)	(1,0)	(1,0)	(1,0)	(1,0)	(1,0)	
L1D -368>	(0,4)	(368,3)	(-3,1)	(-1,1)	(1,2)	(98,1)	(5,1)	(1,0)	(1,0)	(1,0)	(1,0)	(1,0)	(1,0)	(1,0)	(1,0)	(1,0)	
L1D -367>	(1,4)	(6,1)	(0,1)	(24,1)	(62,1)	(-7,1)	(17,2)	(2,3)	(368,1)	(1,0)	(1,0)	(1,0)	(1,0)	(1,0)	(1,0)	(1,0)	
L1D -366>	(0,3)	(-18,1)	(320,1)	(242,1)	(1,1)	(4,1)	(370,1)	(108,1)	(418,1)	(1,0)	(1,0)	(1,0)	(1,0)	(1,0)	(1,0)	(1,0)	
L1D -365>	(60,14)	(369,1)	(365,4)	(-1,2)	(4,1)	(0,5)	(366,2)	(1,1)	(2,1)	(1,0)	(1,0)	(1,0)	(1,0)	(1,0)	(1,0)	(1,0)	
L1D -364>	(364,4)	(0,3)	(50,1)	(1,3)	(78,1)	(1,0)	(1,0)	(1,0)	(1,0)	(1,0)	(1,0)	(1,0)	(1,0)	(1,0)	(1,0)	(1,0)	
L1D -363>	(1,4)	(128,1)	(18,1)	(3,2)	(0,5)	(74,1)	(104,1)	(364,1)	(88,1)	(24,1)	(378,1)	(363,1)	(1,0)	(1,0)	(1,0)	(1,0)	
L1D -362>	(-1,1)	(1,3)	(85,1)	(0,5)	(230,1)	(400,1)	(32,1)	(362,6)	(78,2)	(1,0)	(1,0)	(1,0)	(1,0)	(1,0)	(1,0)	(1,0)	
L1D -361>	(1,3)	(363,1)	(362,2)	(0,4)	(361,1)	(107,1)	(91,1)	(62,2)	(2,1)	(82,1)	(59,1)	(1,0)	(1,0)	(1,0)	(1,0)	(1,0)	
L1D -360>	(0,6)	(354,1)	(88,1)	(1,6)	(3,2)	(363,1)	(-2,1)	(-1,2)	(4,1)	(130,1)	(1,0)	(1,0)	(1,0)	(1,0)	(1,0)	(1,0)	
L1D -359>	(60,78)	(1,1)	(0,2)	(359,1)	(6,1)	(4,0)	(3,0)	(1,0)	(1,0)	(1,0)	(1,0)	(1,0)	(1,0)	(1,0)	(1,0)	(1,0)	
L1D -358>	(358,3)	(-54,1)	(234,1)	(60,4)	(1,4)	(20,1)	(176,1)	(0,2)	(377,1)	(6,1)	(24,1)	(1,0)	(1,0)	(1,0)	(1,0)	(1,0)	
L1D -357>	(-26,1)	(5,4)	(357,1)	(1,4)	(370,1)	(6,1)	(0,4)	(352,1)	(1,0)	(1,0)	(1,0)	(1,0)	(1,0)	(1,0)	(1,0)	(1,0)	
L1D -356>	(302,1)	(357,1)	(192,1)	(24,1)	(-18,1)	(0,4)	(442,1)	(-1,1)	(344,1)	(-98,1)	(1,1)	(38,1)	(1,0)	(1,0)	(1,0)	(1,0)	
L1D -355>	(1,3)	(56,3)	(232,1)	(359,1)	(355,3)	(0,5)	(356,1)	(2,2)	(353,1)	(102,1)	(41,1)	(-14,1)	(1,0)	(1,0)	(1,0)	(1,0)	
L1D -354>	(-1,1)	(1,4)	(95,1)	(69,1)	(352,1)	(0,5)	(278,1)	(3,1)	(8,1)	(302,1)	(1,0)	(1,0)	(1,0)	(1,0)	(1,0)	(1,0)	
L1D -353>	(1,5)	(354,1)	(24,1)	(0,3)	(-16,1)	(64,1)	(107,1)	(6,2)	(82,1)	(-7,1)	(1,0)	(1,0)	(1,0)	(1,0)	(1,0)	(1,0)	
L1D -352>	(91,1)	(-1,9)	(353,2)	(1,3)	(4,1)	(6,2)	(0,3)	(274,1)	(-56,1)	(340,1)	(352,1)	(162,1)	(1,0)	(1,0)	(1,0)	(1,0)	
L1D -351>	(1,4)	(24,1)	(3,2)	(18,1)	(0,3)	(351,3)	(352,1)	(69,1)	(2,1)	(1,0)	(1,0)	(1,0)	(1,0)	(1,0)	(1,0)	(1,0)	
L1D -350>	(0,5)	(44,2)	(119,1)	(350,1)	(89,1)	(349,1)	(1,2)	(420,1)	(-3,1)	(1,0)	(1,0)	(1,0)	(1,0)	(1,0)	(1,0)	(1,0)	
L1D -349>	(5,1)	(24,1)	(0,3)	(81,1)	(-108,1)	(350,1)	(349,2)	(89,2)	(-37,1)	(56,1)	(-1,1)	(-3,1)	(300,1)	(1,0)	(1,0)	(1,0)	
L1D -348>	(1,3)	(0,6)	(349,1)	(2,1)	(348,1)	(26,2)	(346,1)	(6,1)	(-74,1)	(3,1)	(-1,2)	(33,1)	(1,0)	(1,0)	(1,0)	(1,0)	
L1D -347>	(5,1)	(109,1)	(84,1)	(0,2)	(-1,1)	(64,1)	(347,2)	(63,1)	(1,0)	(1,0)	(1,0)	(1,0)	(1,0)	(1,0)	(1,0)	(1,0)	
L1D -346>	(341,23)	(4,97)	(0,17)	(298,0)	(24,0)	(1,0)	(1,0)	(1,0)	(1,0)	(1,0)	(1,0)	(1,0)	(1,0)	(1,0)	(1,0)	(1,0)	
L1D -345>	(2,3)	(93,1)	(1,3)	(0,5)	(4,1)	(345,4)	(222,1)	(24,1)	(47,1)	(23,3)	(5,1)	(1,0)	(1,0)	(1,0)	(1,0)	(1,0)	
L1D -344>	(0,7)	(347,2)	(26,1)	(4,1)	(442,1)	(34,1)	(290,1)	(17,2)	(-2,2)	(344,1)	(1,1)	(1,0)	(1,0)	(1,0)	(1,0)	(1,0)	
L1D -343>	(1,1)	(338,110)	(-3,22)	(343,1)	(0,1)	(6,1)	(1,0)	(1,0)	(1,0)	(1,0)	(1,0)	(1,0)	(1,0)	(1,0)	(1,0)	(1,0)	
L1D -342>	(-4,28)	(1,7)	(-1,1)	(0,6)	(332,1)	(337,24)	(324,1)	(342,5)	(343,1)	(-20,1)	(-12,1)	(266,1)	(112,1)	(4,1)	(1,0)	(1,0)	
L1D -341>	(0,70)	(341,13)	(5,61)	(4,89)	(34,0)	(346,2)	(1,0)	(1,0)	(1,0)	(1,0)	(1,0)	(1,0)	(1,0)	(1,0)	(1,0)	(1,0)	
L1D -340>	(4,3)	(0,11)	(1,4)	(-24,1)	(91,1)	(142,1)	(340,1)	(3,1)	(1,0)	(1,0)	(1,0)	(1,0)	(1,0)	(1,0)	(1,0)	(1,0)	
L1D -339>	(1,3)	(99,1)	(3,2)	(0,4)	(4,2)	(-20,1)	(339,1)	(2,1)	(114,1)	(-13,1)	(1,0)	(1,0)	(1,0)	(1,0)	(1,0)	(1,0)	
L1D -338>	(1,13)	(-3,67)	(338,3)	(-1,0)	(0,2)	(6,0)	(343,6)	(32,0)	(339,1)	(52,0)	(2,0)	(346,0)	(64,0)	(294,0)	(1,0)	(1,0)	
L1D -337>	(342,114)	(104,4)	(117,121)	(-4,33)	(167,14)	(114,97)	(18,0)	(24,0)	(0,1)	(1,0)	(1,0)	(1,0)	(1,0)	(1,0)	(1,0)	(1,0)	
L1D -336>	(341,6)	(-5,1)	(4,2)	(1,7)	(337,2)	(38,2)	(336,1)	(0,6)	(50,2)	(360,1)	(20,1)	(348,1)	(220,1)	(1,0)	(1,0)	(1,0)	
L1D -335>	(0,4)	(24,1)	(18,1)	(162,1)	(42,1)	(384,1)	(92,1)	(336,1)	(4,2)	(72,1)	(3,1)	(148,1)	(1,2)	(-1,1)	(2,1)	(6,1)	
L1D -334>	(0,5)	(1,2)	(337,1)	(4,1)	(75,1)	(252,1)	(132,1)	(328,1)	(334,1)	(339,1)	(1,0)	(1,0)	(1,0)	(1,0)	(1,0)	(1,0)	
L1D -333>	(0,3)	(84,1)	(35,1)	(1,5)	(-36,1)	(24,1)	(-1,2)	(103,1)	(54,1)	(92,1)	(-61,2)	(294,1)	(2,2)	(114,2)	(333,1)	(61,1)	
L1D -332>	(333,4)	(332,1)	(-1,1)	(50,1)	(1,3)	(-18,1)	(337,1)	(0,3)	(1,0)	(1,0)	(1,0)	(1,0)	(1,0)	(1,0)	(1,0)	(1,0)	
L1D -331>	(1,7)	(331,8)	(325,2)	(3,1)	(4,6)	(0,4)	(29,2)	(-137,2)	(490,1)	(144,1)	(-70,1)	(252,1)	(-1,1)	(1,0)	(1,0)	(1,0)	
L1D -330>	(4,5)	(0,8)	(32,1)	(330,1)	(1,4)	(5,4)	(44,2)	(20,1)	(1,0)	(1,0)	(1,0)	(1,0)	(1,0)	(1,0)	(1,0)	(1,0)	
L1D -329>	(329,1)	(-1,1)	(0,8)	(24,2)	(324,1)	(145,1)	(1,0)	(1,0)	(1,0)	(1,0)	(1,0)	(1,0)	(1,0)	(1,0)	(1,0)	(1,0)	
L1D -328>	(15,69)	(22,54)	(328,1)	(54,0)	(331,0)	(4,1)	(0,1)	(1,0)	(1,0)	(1,0)	(1,0)	(1,0)	(1,0)	(1,0)	(1,0)	(1,0)	
L1D -327>	(1,2)	(0,6)	(222,1)	(454,1)	(56,1)	(24,1)	(29,1)	(47,1)	(6,1)	(1,0)	(1,0)	(1,0)	(1,0)	(1,0)	(1,0)	(1,0)	
L1D -326>	(2,1)	(1,4)	(0,6)	(329,1)	(146,1)	(4,2)	(-138,1)	(20,1)	(1,0)	(1,0)	(1,0)	(1,0)	(1,0)	(1,0)	(1,0)	(1,0)	
L1D -325>	(0,8)	(-6,1)	(1,2)	(86,1)	(6,2)	(325,1)	(75,1)	(4,1)	(-2,1)	(356,1)	(20,1)	(-1,1)	(3,1)	(24,1)	(139,1)	(1,0)	
L1D -324>	(0,7)	(1,3)	(-46,1)	(-146,1)	(6,1)	(26,1)	(111,1)	(404,1)	(38,1)	(322,1)	(1,0)	(1,0)	(1,0)	(1,0)	(1,0)	(1,0)	
L1D -323>	(0,11)	(6,3)	(3,3)	(-1,1)	(1,2)	(29,1)	(4,4)	(48,1)	(1,0)	(1,0)	(1,0)	(1,0)	(1,0)	(1,0)	(1,0)	(1,0)	
L1D -322>	(-4,6)	(34,1)	(24,1)	(-36,1)	(0,8)	(1,1)	(-2,1)	(240,1)	(52,1)	(311,1)	(-98,1)	(86,1)	(1,0)	(1,0)	(1,0)	(1,0)	
L1D -321>	(1,4)	(146,2)	(120,1)	(336,1)	(0,9)	(24,2)	(-5,1)	(47,1)	(40,1)	(112,1)	(53,1)	(3,1)	(317,1)	(1,0)	(1,0)	(1,0)	
L1D -320>	(19,1)	(146,1)	(1,3)	(24,1)	(0,13)	(320,4)	(323,1)	(-1,1)	(20,1)	(4,3)	(332,1)	(32,1)	(1,0)	(1,0)	(1,0)	(1,0)	
L1D -319>	(-2,4)	(3,2)	(0,5)	(20,3)	(24,1)	(-1,2)	(18,1)	(56,1)	(4,2)	(-10,1)	(23,1)	(1,1)	(6,1)	(1,0)	(1,0)	(1,0)	
L1D -318>	(4,3)	(-20,1)	(321,1)	(0,7)	(5,2)	(52,1)	(1,2)	(374,1)	(316,1)	(442,1)	(-4,1)	(319,1)	(16,1)	(323,1)	(1,0)	(1,0)	
L1D -317>	(23,2)	(5,1)	(0,11)	(24,1)	(1,1)	(6,2)	(316,1)	(317,1)	(354,1)	(2,1)	(1,0)	(1,0)	(1,0)	(1,0)	(1,0)	(1,0)	
L1D -316>	(0,8)	(5,1)	(1,2)	(319,1)	(4,1)	(134,1)	(-1,1)	(146,1)	(17,1)	(1,0)	(1,0)	(1,0)	(1,0)	(1,0)	(1,0)	(1,0)	
L1D -315>	(3,3)	(6,2)	(4,2)	(18,1)	(1,2)	(-2,1)	(0,6)	(317,1)	(319,1)	(324,1)	(47,2)	(26,2)	(315,1)	(1,0)	(1,0)	(1,0)	
L1D -314>	(1,7)	(0,7)	(4,2)	(182,1)	(61,2)	(10,1)	(20,1)	(5,13)	(1,0)	(1,0)	(1,0)	(1,0)	(1,0)	(1,0)	(1,0)	(1,0)	
L1D -313>	(0,12)	(313,91)	(6,3)	(1,5)	(26,1)	(24,2)	(-20,1)	(41,2)	(-13,1)	(-1,1)	(1,0)	(1,0)	(1,0)	(1,0)	(1,0)	(1,0)	
L1D -312>	(19,1)	(315,1)	(0,6)	(1,4)	(4,6)	(-4,1)	(35,1)	(-61,1)	(44,1)	(264,1)	(1,0)	(1,0)	(1,0)	(1,0)	(1,0)	(1,0)	
L1D -311>	(0,6)	(-1,1)	(26,1)	(24,2)	(1,4)	(18,1)	(-14,1)	(311,1)	(6,2)	(310,1)	(1,0)	(1,0)	(1,0)	(1,0)	(1,0)	(1,0)	
L1D -310>	(313,2)	(4,1)	(60,1)	(0,2)	(6,1)	(-20,1)	(1,4)	(3,4)	(304,9)	(1,0)	(1,0)	(1,0)	(1,0)	(1,0)	(1,0)	(1,0)	
L1D -309>	(6,5)	(5,1)	(1,3)	(3,3)	(24,2)	(0,5)	(-13,2)	(309,2)	(-1,2)	(19,1)	(1,0)	(1,0)	(1,0)	(1,0)	(1,0)	(1,0)	
L1D -308>	(248,1)	(0,13)	(52,1)	(1,4)	(198,1)	(309,1)	(20,2)	(306,1)	(4,1)	(308,2)	(-9,1)	(6,1)	(311,1)	(2,2)	(142,1)	(128,1)	
L1D -307>	(0,5)	(306,1)	(6,1)	(1,1)	(-5,1)	(320,1)	(26,1)	(264,1)	(1,0)	(1,0)	(1,0)	(1,0)	(1,0)	(1,0)	(1,0)	(1,0)	
L1D -306>	(0,80)	(2,0)	(306,11)	(411,0)	(1,0)	(1,0)	(1,0)	(1,0)	(1,0)	(1,0)	(1,0)	(1,0)	(1,0)	(1,0)	(1,0)	(1,0)	
L1D -305>	(6,5)	(83,1)	(0,12)	(1,5)	(321,5)	(24,5)	(26,1)	(43,2)	(305,1)	(17,1)	(311,3)	(1,0)	(1,0)	(1,0)	(1,0)	(1,0)	
L1D -304>	(2,1)	(0,13)	(14,1)	(4,4)	(1,4)	(20,5)	(302,1)	(58,1)	(-81,1)	(7,1)	(146,1)	(6,1)	(-71,1)	(19,1)	(1,0)	(1,0)	
L1D -303>	(-20,2)	(3,2)	(0,11)	(24,2)	(-128,1)	(-1,1)	(234,1)	(6,2)	(303,1)	(35,1)	(1,0)	(1,0)	(1,0)	(1,0)	(1,0)	(1,0)	
L1D -302>	(1,5)	(0,10)	(274,1)	(300,2)	(-26,1)	(50,1)	(4,1)	(305,1)	(354,1)	(19,1)	(295,1)	(146,2)	(307,1)	(-6,1)	(1,0)	(1,0)	
L1D -301>	(2,2)	(6,7)	(0,9)	(304,1)	(303,1)	(276,2)	(294,1)	(296,1)	(5,1)	(-13,1)	(301,1)	(1,4)	(3,1)	(24,1)	(305,1)	(-4,9)	
L1D -300>	(3,1)	(303,1)	(100,1)	(-38,1)	(1,2)	(146,1)	(0,7)	(305,2)	(6,3)	(300,1)	(2,1)	(20,1)	(386,1)	(1,0)	(1,0)	(1,0)	
L1D -299>	(321,71)	(0,11)	(14,3)	(56,1)	(6,2)	(2,6)	(258,1)	(1,5)	(16,1)	(-110,1)	(76,1)	(388,1)	(17,1)	(74,1)	(35,1)	(1,0)	
L1D -298>	(0,14)	(10,1)	(296,7)	(301,2)	(297,1)	(110,1)	(2,1)	(298,1)	(146,1)	(152,1)	(279,1)	(299,2)	(378,1)	(19,1)	(-80,1)	(1,1)	
L1D -297>	(26,8)	(-20,2)	(0,12)	(24,7)	(299,1)	(6,5)	(297,1)	(225,1)	(2,1)	(296,1)	(260,1)	(1,0)	(1,0)	(1,0)	(1,0)	(1,0)	
L1D -296>	(297,1)	(-2,1)	(146,1)	(1,3)	(24,1)	(216,1)	(0,15)	(4,2)	(294,2)	(299,1)	(19,3)	(6,1)	(-9,1)	(14,3)	(296,1)	(-12,1)	
L1D -295>	(0,5)	(1,4)	(6,10)	(258,1)	(19,3)	(180,1)	(18,1)	(47,2)	(297,2)	(272,1)	(317,2)	(-136,1)	(167,1)	(2,1)	(-1,1)	(77,1)	
L1D -294>	(1,2)	(297,3)	(-50,1)	(0,13)	(20,1)	(14,10)	(390,1)	(294,1)	(26,2)	(4,1)	(2,2)	(299,2)	(296,1)	(88,1)	(-16,1)	(292,1)	
L1D -293>	(6,10)	(0,14)	(-20,2)	(24,9)	(26,2)	(-1,1)	(1,5)	(293,3)	(-2,1)	(297,1)	(17,1)	(-6,1)	(248,1)	(306,1)	(315,1)	(19,2)	
L1D -292>	(0,16)	(-1,6)	(6,6)	(19,6)	(20,3)	(1,2)	(134,1)	(295,2)	(4,1)	(297,1)	(-106,1)	(-9,1)	(2,2)	(290,1)	(238,1)	(29,1)	
L1D -291>	(24,2)	(0,11)	(1,4)	(19,4)	(210,1)	(291,2)	(295,3)	(293,2)	(6,1)	(271,1)	(276,1)	(20,3)	(301,1)	(131,1)	(307,1)	(289,1)	
L1D -290>	(2,7)	(0,11)	(295,2)	(291,2)	(-14,1)	(7,1)	(293,1)	(20,3)	(271,1)	(19,4)	(130,1)	(146,1)	(6,3)	(-52,1)	(1,5)	(-18,1)	
L1D -289>	(-2,1)	(6,4)	(0,9)	(27,1)	(1,2)	(24,3)	(289,1)	(-1,1)	(-20,1)	(1,0)	(1,0)	(1,0)	(1,0)	(1,0)	(1,0)	(1,0)	
L1D -288>	(2,2)	(120,1)	(1,6)	(6,3)	(238,1)	(418,1)	(291,1)	(0,14)	(20,1)	(68,1)	(-20,2)	(184,1)	(250,1)	(306,1)	(5,1)	(14,1)	
L1D -287>	(286,1)	(10,1)	(0,20)	(24,4)	(287,2)	(18,1)	(-14,1)	(6,5)	(422,1)	(26,1)	(262,1)	(291,4)	(2,2)	(1,1)	(396,1)	(-20,1)	
L1D -286>	(-18,1)	(20,9)	(289,4)	(2,4)	(0,15)	(298,1)	(19,2)	(24,1)	(1,3)	(-20,1)	(262,1)	(23,1)	(295,1)	(287,1)	(-94,1)	(1,0)	
L1D -285>	(6,7)	(3,10)	(0,13)	(2,1)	(24,4)	(285,5)	(37,3)	(1,3)	(13,1)	(289,1)	(148,1)	(26,1)	(242,1)	(1,0)	(1,0)	(1,0)	
L1D -284>	(-20,2)	(4,1)	(19,5)	(0,12)	(20,7)	(-160,1)	(1,3)	(-14,1)	(289,2)	(14,1)	(6,2)	(-1,1)	(282,1)	(5,1)	(17,1)	(146,1)	
L1D -283>	(282,2)	(0,17)	(5,2)	(268,1)	(19,2)	(285,2)	(334,1)	(-1,2)	(-34,1)	(6,1)	(272,1)	(24,1)	(2,3)	(23,1)	(12,2)	(31,1)	
L1D -282>	(262,1)	(14,2)	(0,11)	(19,10)	(20,6)	(280,1)	(1,5)	(283,1)	(-12,1)	(287,3)	(4,1)	(113,1)	(188,1)	(94,1)	(1,0)	(1,0)	
L1D -281>	(1,3)	(6,6)	(0,13)	(24,6)	(4,1)	(26,1)	(-1,1)	(285,1)	(5,1)	(283,1)	(76,1)	(-20,1)	(29,1)	(-2,1)	(270,1)	(256,1)	
L1D -280>	(0,14)	(-20,4)	(280,2)	(238,1)	(304,1)	(283,3)	(272,2)	(20,1)	(1,2)	(6,1)	(2,2)	(4,1)	(250,1)	(12,2)	(-2,1)	(278,4)	
L1D -279>	(26,3)	(-20,4)	(2,2)	(24,9)	(0,20)	(1,1)	(6,2)	(8,19)	(7,2)	(279,1)	(281,1)	(234,1)	(18,1)	(283,3)	(19,3)	(238,1)	
L1D -278>	(16,3)	(281,4)	(272,2)	(2,3)	(20,8)	(19,14)	(-6,3)	(0,12)	(1,2)	(283,3)	(-20,4)	(297,2)	(12,2)	(276,1)	(314,1)	(6,1)	
L1D -277>	(0,116)	(277,6)	(273,50)	(19,0)	(3,0)	(296,0)	(248,0)	(1,0)	(1,0)	(1,0)	(1,0)	(1,0)	(1,0)	(1,0)	(1,0)	(1,0)	
L1D -276>	(2,12)	(274,7)	(14,3)	(0,14)	(6,5)	(4,3)	(1,3)	(279,5)	(19,14)	(8,10)	(276,2)	(414,1)	(296,1)	(20,14)	(281,3)	(146,1)	
L1D -275>	(275,12)	(1,5)	(26,6)	(6,5)	(0,25)	(8,7)	(277,1)	(96,1)	(19,3)	(272,1)	(279,1)	(24,4)	(56,1)	(-20,3)	(25,2)	(2,3)	
L1D -274>	(-12,1)	(-18,1)	(276,3)	(20,2)	(6,1)	(8,15)	(-20,2)	(0,14)	(4,2)	(1,2)	(2,15)	(264,1)	(50,2)	(-6,2)	(-120,1)	(279,3)	
L1D -273>	(277,120)	(9,1)	(24,1)	(6,3)	(411,3)	(-98,1)	(412,3)	(0,7)	(17,1)	(273,2)	(420,3)	(-1,0)	(275,0)	(1,2)	(1,0)	(1,0)	
L1D -272>	(295,1)	(20,5)	(0,19)	(272,3)	(-12,2)	(50,2)	(270,7)	(4,3)	(275,6)	(-1,4)	(273,2)	(252,1)	(242,1)	(1,3)	(19,1)	(56,1)	
L1D -271>	(271,9)	(0,34)	(26,2)	(24,2)	(242,1)	(2,2)	(19,2)	(6,3)	(18,1)	(-1,2)	(1,4)	(275,1)	(-20,2)	(267,1)	(250,1)	(1,0)	
L1D -270>	(222,1)	(273,4)	(2,3)	(0,11)	(3,1)	(295,1)	(7,1)	(275,4)	(-20,4)	(-88,1)	(20,16)	(281,1)	(262,1)	(-18,1)	(288,1)	(1,2)	
L1D -269>	(26,6)	(2,1)	(3,119)	(270,1)	(6,2)	(19,1)	(0,8)	(1,1)	(-6,1)	(29,1)	(-20,2)	(24,2)	(268,5)	(13,12)	(22,1)	(4,2)	
L1D -268>	(1,3)	(-26,2)	(5,7)	(20,26)	(0,14)	(6,3)	(2,21)	(19,45)	(292,2)	(-20,7)	(266,3)	(271,2)	(10,1)	(273,1)	(-7,2)	(272,1)	
L1D -267>	(1,4)	(420,73)	(412,64)	(20,2)	(228,1)	(24,9)	(411,25)	(6,3)	(29,3)	(263,17)	(-26,1)	(0,12)	(419,2)	(271,3)	(7,2)	(3,1)	
L1D -266>	(2,5)	(277,1)	(12,1)	(-18,1)	(0,16)	(289,1)	(24,1)	(4,12)	(19,28)	(266,3)	(269,5)	(-26,1)	(272,2)	(-20,6)	(18,1)	(1,6)	
L1D -265>	(262,1)	(1,6)	(0,14)	(26,2)	(17,1)	(6,3)	(-20,4)	(24,9)	(2,2)	(263,1)	(9,2)	(240,2)	(265,5)	(7,1)	(19,3)	(267,1)	
L1D -264>	(19,3)	(1,6)	(2,4)	(14,2)	(0,15)	(-12,3)	(262,8)	(276,3)	(234,4)	(20,10)	(24,3)	(12,2)	(4,9)	(-14,1)	(-26,2)	(267,4)	
L1D -263>	(-1,1)	(265,3)	(24,18)	(26,5)	(1,19)	(0,32)	(267,2)	(263,4)	(432,1)	(277,1)	(-42,8)	(-20,2)	(2,2)	(6,1)	(19,5)	(29,3)	
L1D -262>	(267,1)	(-18,2)	(20,26)	(2,6)	(260,1)	(281,1)	(-12,3)	(265,3)	(1,2)	(219,1)	(19,4)	(322,1)	(0,8)	(6,4)	(146,1)	(-20,3)	
L1D -261>	(24,9)	(26,28)	(6,6)	(0,16)	(1,6)	(3,5)	(10,6)	(-1,1)	(261,5)	(260,1)	(29,1)	(36,1)	(263,1)	(364,1)	(19,2)	(292,1)	
L1D -260>	(0,8)	(2,8)	(-26,2)	(1,8)	(4,1)	(-6,2)	(218,1)	(265,2)	(296,1)	(272,1)	(20,8)	(6,2)	(72,1)	(-1,1)	(-18,1)	(244,1)	
L1D -259>	(3,13)	(1,11)	(23,2)	(0,14)	(261,5)	(220,11)	(13,2)	(24,3)	(10,6)	(259,5)	(258,1)	(240,1)	(-20,2)	(2,2)	(6,1)	(346,1)	
L1D -258>	(20,2)	(62,124)	(1,32)	(76,1)	(6,0)	(-20,1)	(0,3)	(263,0)	(251,0)	(2,0)	(186,0)	(61,0)	(1,0)	(1,0)	(1,0)	(1,0)	
L1D -257>	(0,54)	(98,79)	(259,0)	(99,3)	(60,95)	(-20,0)	(261,0)	(257,0)	(240,0)	(97,0)	(24,3)	(61,13)	(22,0)	(1,1)	(1,0)	(1,0)	
L1D -256>	(1,81)	(-20,1)	(20,5)	(259,1)	(-26,1)	(254,0)	(0,2)	(255,0)	(82,0)	(251,13)	(19,1)	(1,0)	(1,0)	(1,0)	(1,0)	(1,0)	
L1D -255>	(19,1)	(84,116)	(0,96)	(250,38)	(264,1)	(26,4)	(-20,1)	(259,4)	(262,1)	(24,1)	(266,1)	(20,1)	(234,1)	(1,0)	(1,0)	(1,0)	
L1D -254>	(2,24)	(-12,9)	(257,7)	(0,12)	(-20,9)	(19,5)	(259,4)	(20,47)	(4,2)	(-34,3)	(6,2)	(28,1)	(247,1)	(38,1)	(252,3)	(-22,1)	
L1D -253>	(24,3)	(-1,1)	(253,13)	(1,8)	(6,3)	(29,1)	(0,17)	(17,2)	(3,2)	(7,2)	(-13,1)	(-20,4)	(-18,1)	(208,2)	(-22,1)	(252,2)	
L1D -252>	(2,8)	(-20,11)	(20,4)	(-26,2)	(0,7)	(19,9)	(7,1)	(285,1)	(252,6)	(218,1)	(1,5)	(257,2)	(253,1)	(-12,3)	(288,1)	(168,1)	
L1D -251>	(3,2)	(-20,1)	(13,0)	(0,0)	(1,113)	(-36,0)	(47,0)	(38,0)	(1,0)	(1,0)	(1,0)	(1,0)	(1,0)	(1,0)	(1,0)	(1,0)	
L1D -250>	(84,89)	(-18,2)	(1,3)	(253,1)	(250,1)	(4,2)	(20,0)	(257,1)	(2,8)	(19,3)	(0,8)	(-20,7)	(7,1)	(273,0)	(252,1)	(3,0)	
L1D -249>	(1,23)	(24,26)	(249,2)	(26,3)	(-36,22)	(0,13)	(-20,4)	(19,3)	(278,1)	(6,3)	(43,1)	(-10,1)	(-40,2)	(-48,3)	(-76,1)	(31,1)	
L1D -248>	(4,3)	(2,8)	(16,1)	(-12,1)	(0,16)	(282,1)	(-26,1)	(20,56)	(19,16)	(-20,10)	(344,1)	(246,2)	(248,2)	(251,1)	(3,5)	(1,2)	
L1D -247>	(26,38)	(247,23)	(-20,3)	(240,2)	(0,13)	(1,10)	(8,1)	(248,1)	(226,16)	(24,6)	(50,3)	(-14,1)	(243,2)	(146,1)	(-26,1)	(22,2)	
L1D -246>	(246,7)	(247,1)	(249,1)	(20,12)	(19,32)	(1,10)	(-34,1)	(-18,2)	(4,4)	(244,4)	(0,13)	(2,4)	(6,1)	(26,2)	(-1,2)	(-19,1)	
L1D -245>	(250,95)	(-6,11)	(245,1)	(258,1)	(0,3)	(13,19)	(41,0)	(26,0)	(24,2)	(-9,0)	(247,1)	(-20,0)	(240,0)	(-32,0)	(1,1)	(1,0)	
L1D -244>	(14,1)	(0,8)	(242,1)	(-26,1)	(-20,6)	(-18,2)	(1,6)	(146,2)	(20,5)	(249,3)	(247,2)	(236,1)	(272,1)	(245,2)	(234,1)	(244,1)	
L1D -243>	(3,74)	(0,5)	(2,1)	(1,1)	(24,4)	(13,8)	(245,1)	(29,0)	(242,1)	(204,1)	(243,2)	(238,0)	(4,1)	(19,2)	(7,0)	(236,2)	
L1D -242>	(7,5)	(-26,4)	(2,10)	(235,3)	(1,8)	(244,1)	(0,14)	(-20,4)	(20,8)	(19,1)	(242,1)	(-6,3)	(286,1)	(5,1)	(205,1)	(-1,1)	
L1D -241>	(24,25)	(241,22)	(26,46)	(1,4)	(0,21)	(29,2)	(-212,1)	(145,1)	(2,1)	(-20,7)	(-26,1)	(248,1)	(-6,1)	(6,1)	(3,3)	(-1,2)	
L1D -240>	(7,7)	(4,4)	(0,20)	(2,4)	(20,24)	(19,13)	(24,2)	(239,2)	(241,1)	(240,1)	(-26,3)	(1,4)	(26,2)	(-6,1)	(242,1)	(-20,2)	
L1D -239>	(239,50)	(-20,20)	(244,11)	(1,4)	(0,22)	(29,2)	(241,5)	(5,1)	(2,3)	(243,1)	(280,1)	(240,1)	(19,5)	(9,1)	(-1,1)	(28,1)	
L1D -238>	(239,4)	(1,2)	(241,3)	(-20,1)	(0,17)	(2,8)	(238,6)	(12,34)	(19,2)	(20,14)	(243,1)	(231,1)	(277,1)	(-126,1)	(208,1)	(5,1)	
L1D -237>	(-9,6)	(239,3)	(0,30)	(237,3)	(29,3)	(-20,8)	(6,4)	(-26,1)	(7,2)	(-6,1)	(100,2)	(84,1)	(2,2)	(230,1)	(24,2)	(1,1)	
L1D -236>	(2,5)	(0,15)	(229,1)	(239,1)	(19,6)	(-18,1)	(272,1)	(-20,6)	(326,1)	(241,3)	(264,1)	(20,6)	(1,6)	(237,3)	(269,1)	(236,3)	
L1D -235>	(235,16)	(24,8)	(2,24)	(1,6)	(0,18)	(19,2)	(6,7)	(20,1)	(-20,7)	(29,3)	(374,4)	(-5,1)	(196,4)	(237,4)	(-1,1)	(239,1)	
L1D -234>	(-20,7)	(0,17)	(-18,5)	(-6,5)	(35,2)	(1,2)	(20,3)	(19,11)	(275,1)	(2,3)	(258,1)	(-118,1)	(-12,1)	(288,2)	(14,1)	(6,2)	
L1D -233>	(-20,8)	(24,19)	(1,10)	(227,9)	(233,33)	(26,5)	(0,16)	(229,3)	(29,4)	(240,3)	(234,1)	(3,4)	(2,1)	(6,3)	(224,1)	(238,2)	
L1D -232>	(0,15)	(233,13)	(1,6)	(202,4)	(2,3)	(19,16)	(232,3)	(4,1)	(6,5)	(280,1)	(-20,13)	(20,10)	(-22,1)	(273,1)	(52,1)	(-186,1)	
L1D -231>	(202,2)	(29,1)	(231,3)	(1,7)	(0,26)	(109,1)	(2,3)	(7,4)	(233,5)	(-22,1)	(19,1)	(6,2)	(235,2)	(328,1)	(4,2)	(-20,4)	
L1D -230>	(2,8)	(0,11)	(38,1)	(233,5)	(-6,2)	(223,4)	(231,2)	(4,3)	(1,6)	(20,12)	(-18,3)	(229,2)	(228,2)	(26,1)	(7,4)	(6,1)	
L1D -229>	(0,84)	(374,8)	(24,2)	(-9,28)	(-26,1)	(26,2)	(7,5)	(2,2)	(3,1)	(17,1)	(231,4)	(6,0)	(-20,1)	(1,0)	(29,0)	(255,0)	
L1D -228>	(256,1)	(-27,10)	(229,2)	(261,3)	(19,1)	(0,15)	(254,1)	(-20,18)	(-18,4)	(226,1)	(221,1)	(52,1)	(269,1)	(1,2)	(140,1)	(233,1)	
L1D -227>	(227,31)	(0,15)	(10,1)	(14,1)	(3,1)	(1,11)	(188,36)	(2,1)	(47,2)	(229,7)	(20,2)	(24,1)	(5,1)	(19,2)	(-20,9)	(6,4)	
L1D -226>	(2,4)	(6,5)	(-26,4)	(0,16)	(-3,5)	(1,6)	(220,1)	(232,2)	(194,1)	(292,1)	(20,2)	(286,1)	(102,1)	(-234,1)	(-128,1)	(-1,1)	
L1D -225>	(225,62)	(24,19)	(26,3)	(29,4)	(1,9)	(-20,29)	(0,16)	(208,1)	(17,1)	(7,1)	(3,2)	(-22,1)	(412,1)	(19,5)	(-36,2)	(-6,1)	
L1D -224>	(2,4)	(6,3)	(0,18)	(-20,8)	(19,25)	(224,14)	(4,2)	(225,6)	(20,16)	(286,1)	(-6,2)	(146,1)	(-4,9)	(-70,1)	(-1,1)	(1,3)	
L1D -223>	(0,17)	(225,6)	(2,11)	(223,22)	(40,1)	(4,1)	(186,1)	(252,3)	(7,10)	(-109,1)	(227,1)	(-20,14)	(-26,2)	(6,1)	(36,1)	(1,1)	
L1D -222>	(1,8)	(253,1)	(0,14)	(14,1)	(222,4)	(248,2)	(-18,1)	(-20,12)	(296,1)	(19,2)	(20,10)	(6,1)	(4,3)	(2,10)	(117,1)	(-11,1)	
L1D -221>	(0,26)	(223,1)	(225,1)	(6,5)	(221,28)	(222,1)	(1,4)	(29,3)	(2,46)	(7,1)	(332,1)	(324,1)	(168,1)	(33,1)	(228,4)	(214,3)	
L1D -220>	(253,1)	(20,3)	(0,17)	(2,1)	(-26,6)	(-18,2)	(1,8)	(146,1)	(-7,1)	(-20,24)	(225,3)	(-264,1)	(6,1)	(227,1)	(280,1)	(284,1)	
L1D -219>	(6,3)	(29,1)	(219,80)	(0,32)	(-20,26)	(3,9)	(434,1)	(224,4)	(237,1)	(246,4)	(5,2)	(2,4)	(19,3)	(13,1)	(412,1)	(221,2)	
L1D -218>	(6,2)	(28,1)	(218,1)	(7,1)	(19,3)	(2,20)	(0,15)	(4,5)	(117,1)	(1,3)	(34,1)	(276,1)	(219,2)	(272,1)	(290,1)	(370,1)	
L1D -217>	(217,6)	(19,2)	(1,8)	(6,2)	(0,14)	(246,9)	(224,7)	(29,7)	(-1,3)	(-36,1)	(5,1)	(-20,3)	(2,1)	(26,10)	(12,1)	(-30,1)	
L1D -216>	(0,20)	(214,2)	(2,11)	(19,1)	(1,7)	(218,1)	(14,3)	(20,72)	(217,3)	(-12,1)	(32,1)	(216,2)	(28,1)	(236,1)	(-20,6)	(4,2)	
L1D -215>	(6,2)	(7,1)	(1,5)	(-1,1)	(0,84)	(2,19)	(-4,1)	(217,4)	(276,2)	(-20,4)	(5,1)	(260,1)	(215,0)	(24,1)	(284,0)	(206,0)	
L1D -214>	(0,126)	(278,1)	(1,4)	(-2,0)	(-26,0)	(215,0)	(214,0)	(212,0)	(-20,1)	(-1,0)	(276,0)	(20,0)	(1,0)	(1,0)	(1,0)	(1,0)	
L1D -213>	(213,0)	(1,2)	(0,67)	(-26,0)	(158,0)	(211,0)	(5,0)	(220,0)	(1,0)	(1,0)	(1,0)	(1,0)	(1,0)	(1,0)	(1,0)	(1,0)	
L1D -212>	(1,3)	(-20,17)	(392,1)	(0,28)	(3,8)	(272,1)	(294,1)	(253,1)	(245,2)	(6,1)	(-21,1)	(4,3)	(205,1)	(-169,1)	(248,2)	(217,2)	
L1D -211>	(5,9)	(211,30)	(6,14)	(0,40)	(179,2)	(1,3)	(-20,13)	(24,3)	(29,4)	(60,1)	(-26,1)	(218,1)	(212,9)	(378,1)	(213,2)	(20,2)	
L1D -210>	(0,27)	(216,5)	(35,1)	(7,1)	(4,2)	(494,1)	(3,2)	(-12,2)	(1,6)	(36,1)	(-11,1)	(-20,2)	(-174,1)	(-2,1)	(-82,1)	(24,1)	
L1D -209>	(29,11)	(26,55)	(1,2)	(0,36)	(19,4)	(24,15)	(6,2)	(38,1)	(209,4)	(208,1)	(28,1)	(-116,1)	(246,1)	(213,1)	(130,1)	(4,1)	
L1D -208>	(180,1)	(0,45)	(20,3)	(-26,1)	(-18,2)	(2,2)	(-2,1)	(304,1)	(44,1)	(209,3)	(1,4)	(6,3)	(-1,1)	(19,12)	(146,1)	(117,1)	
L1D -207>	(207,18)	(0,36)	(6,5)	(208,2)	(209,17)	(20,1)	(19,3)	(198,3)	(1,3)	(9,1)	(2,7)	(196,2)	(230,1)	(-20,1)	(47,1)	(5,1)	
L1D -206>	(20,4)	(4,10)	(209,1)	(-26,4)	(3,3)	(0,24)	(387,1)	(14,3)	(206,4)	(6,3)	(154,1)	(2,8)	(207,3)	(204,2)	(1,4)	(66,1)	
L1D -205>	(-137,1)	(0,51)	(198,1)	(207,9)	(-6,1)	(1,12)	(205,1)	(29,1)	(242,1)	(234,3)	(24,1)	(6,13)	(-20,2)	(-26,1)	(212,1)	(204,1)	
L1D -204>	(0,32)	(4,1)	(-11,1)	(-18,3)	(1,6)	(420,1)	(-34,1)	(-190,1)	(-20,1)	(211,2)	(209,1)	(18,1)	(117,1)	(-125,1)	(346,1)	(256,1)	
L1D -203>	(1,3)	(203,29)	(2,3)	(0,29)	(374,1)	(-20,7)	(402,1)	(-6,2)	(6,8)	(3,1)	(204,1)	(24,1)	(205,1)	(1,0)	(1,0)	(1,0)	
L1D -202>	(-70,1)	(0,22)	(232,1)	(1,5)	(7,1)	(6,6)	(24,4)	(-12,1)	(-20,3)	(248,1)	(-150,1)	(204,1)	(352,1)	(117,1)	(207,1)	(235,1)	
L1D -201>	(203,1)	(29,9)	(0,28)	(119,1)	(201,1)	(-20,2)	(244,1)	(23,1)	(218,1)	(17,1)	(208,1)	(4,1)	(1,0)	(1,0)	(1,0)	(1,0)	
L1D -200>	(0,19)	(18,1)	(318,1)	(-2,5)	(-34,1)	(402,1)	(-64,1)	(1,5)	(200,2)	(3,2)	(24,1)	(33,1)	(126,1)	(-1,1)	(7,1)	(6,1)	
L1D -199>	(-26,1)	(0,27)	(1,4)	(452,1)	(200,1)	(3,1)	(2,5)	(186,1)	(201,1)	(132,1)	(5,1)	(188,1)	(7,2)	(-20,2)	(227,1)	(1,0)	
L1D -198>	(-18,6)	(-26,6)	(0,21)	(7,3)	(1,7)	(-6,1)	(130,1)	(-86,1)	(6,1)	(199,3)	(-214,1)	(28,1)	(-1,1)	(260,1)	(188,3)	(229,1)	
L1D -197>	(0,33)	(-61,11)	(3,16)	(1,5)	(124,1)	(6,3)	(192,3)	(201,1)	(199,7)	(226,2)	(34,1)	(-26,1)	(128,1)	(-6,1)	(220,1)	(13,1)	
L1D -196>	(1,4)	(196,42)	(0,22)	(-18,7)	(4,1)	(-14,4)	(227,1)	(-20,7)	(225,2)	(424,1)	(7,1)	(194,1)	(-50,1)	(5,2)	(17,1)	(-48,1)	
L1D -195>	(1,6)	(0,24)	(26,1)	(-20,2)	(200,1)	(292,1)	(195,14)	(6,1)	(193,1)	(386,1)	(1,0)	(1,0)	(1,0)	(1,0)	(1,0)	(1,0)	
L1D -194>	(-26,2)	(0,27)	(192,2)	(193,2)	(1,5)	(205,1)	(48,1)	(246,1)	(299,1)	(254,1)	(6,1)	(284,1)	(306,1)	(-12,1)	(-6,2)	(1,0)	
L1D -193>	(0,27)	(1,7)	(35,2)	(6,2)	(-1,1)	(-20,1)	(5,1)	(-5,1)	(193,2)	(7,1)	(1,0)	(1,0)	(1,0)	(1,0)	(1,0)	(1,0)	
L1D -192>	(0,22)	(38,1)	(193,6)	(7,1)	(229,1)	(-4,3)	(-11,1)	(117,1)	(1,1)	(12,1)	(50,1)	(197,1)	(60,1)	(-18,1)	(4,1)	(140,1)	
L1D -191>	(193,7)	(192,2)	(0,15)	(-150,1)	(6,2)	(2,9)	(-26,3)	(1,5)	(220,5)	(29,1)	(189,1)	(191,3)	(7,2)	(24,2)	(3,1)	(126,1)	
L1D -190>	(1,7)	(0,9)	(44,2)	(-200,1)	(-36,1)	(188,1)	(32,1)	(114,1)	(91,1)	(5,2)	(190,2)	(162,1)	(146,1)	(1,0)	(1,0)	(1,0)	
L1D -189>	(5,2)	(6,20)	(1,7)	(0,19)	(81,1)	(-46,1)	(191,3)	(234,1)	(187,4)	(4,2)	(224,1)	(24,2)	(33,8)	(-20,1)	(220,1)	(204,1)	
L1D -188>	(0,12)	(211,2)	(-6,2)	(195,1)	(368,1)	(193,1)	(134,1)	(-18,1)	(28,1)	(-168,1)	(-26,1)	(1,6)	(4,1)	(-190,1)	(5,2)	(33,3)	
L1D -187>	(187,86)	(0,19)	(-20,33)	(-35,1)	(1,2)	(14,1)	(6,4)	(24,1)	(-6,1)	(20,1)	(194,2)	(26,1)	(56,1)	(17,1)	(18,1)	(2,1)	
L1D -186>	(1,2)	(-1,1)	(24,3)	(464,1)	(0,11)	(-169,1)	(232,1)	(360,1)	(6,3)	(4,2)	(32,2)	(176,1)	(-6,2)	(-282,1)	(-60,1)	(1,0)	
L1D -185>	(19,1)	(0,19)	(29,2)	(-1,1)	(1,2)	(34,3)	(33,2)	(17,1)	(180,1)	(5,2)	(1,0)	(1,0)	(1,0)	(1,0)	(1,0)	(1,0)	
L1D -184>	(7,3)	(38,1)	(20,2)	(0,23)	(1,8)	(26,2)	(28,1)	(-142,1)	(24,1)	(2,1)	(204,1)	(122,1)	(-2,2)	(-102,1)	(-112,1)	(184,1)	
L1D -183>	(0,28)	(2,50)	(150,1)	(183,1)	(7,2)	(13,1)	(1,2)	(-26,1)	(33,2)	(-7,1)	(382,1)	(6,6)	(3,1)	(416,1)	(-1,1)	(-9,1)	
L1D -182>	(-26,2)	(1,7)	(0,11)	(183,1)	(4,3)	(358,1)	(406,1)	(163,1)	(28,1)	(-9,1)	(20,1)	(146,1)	(200,1)	(110,1)	(42,1)	(1,0)	
L1D -181>	(1,2)	(5,4)	(142,1)	(0,16)	(183,2)	(-192,1)	(23,1)	(6,1)	(-86,1)	(-1,1)	(-114,1)	(-7,1)	(-5,1)	(261,1)	(27,1)	(1,0)	
L1D -180>	(34,30)	(174,1)	(50,26)	(-200,1)	(-20,1)	(4,1)	(0,16)	(28,2)	(-11,1)	(117,1)	(38,2)	(185,3)	(5,2)	(33,3)	(26,1)	(382,2)	
L1D -179>	(34,13)	(179,3)	(1,7)	(0,14)	(176,1)	(183,1)	(-120,1)	(1,0)	(1,0)	(1,0)	(1,0)	(1,0)	(1,0)	(1,0)	(1,0)	(1,0)	
L1D -178>	(0,12)	(1,5)	(32,2)	(179,1)	(18,1)	(216,1)	(-1,1)	(-134,1)	(33,1)	(136,1)	(98,1)	(1,0)	(1,0)	(1,0)	(1,0)	(1,0)	
L1D -177>	(2,2)	(177,93)	(1,106)	(3,13)	(4,5)	(171,24)	(0,11)	(90,5)	(366,1)	(346,9)	(12,1)	(6,1)	(35,1)	(-89,1)	(1,0)	(1,0)	
L1D -176>	(171,63)	(82,1)	(0,21)	(172,5)	(218,1)	(-44,1)	(-18,1)	(-106,1)	(177,35)	(176,1)	(2,2)	(170,4)	(-11,1)	(1,4)	(182,3)	(3,1)	
L1D -175>	(0,9)	(1,0)	(177,3)	(-168,14)	(170,70)	(3,2)	(6,5)	(4,0)	(13,0)	(-53,1)	(171,2)	(-13,0)	(-4,0)	(-148,0)	(136,0)	(1,0)	
L1D -174>	(1,8)	(28,18)	(168,91)	(0,30)	(50,16)	(-3,67)	(87,9)	(2,0)	(418,0)	(343,0)	(4,0)	(115,0)	(1,0)	(1,0)	(1,0)	(1,0)	
L1D -173>	(114,0)	(-1,49)	(28,110)	(6,1)	(0,1)	(86,5)	(246,0)	(33,0)	(-26,0)	(342,0)	(1,1)	(1,0)	(1,0)	(1,0)	(1,0)	(1,0)	
L1D -172>	(2,29)	(173,15)	(119,1)	(1,5)	(167,108)	(0,17)	(191,1)	(-72,1)	(117,1)	(172,1)	(178,12)	(320,1)	(-18,2)	(50,2)	(-42,1)	(38,1)	
L1D -171>	(171,100)	(177,39)	(132,0)	(4,24)	(6,0)	(90,39)	(165,0)	(3,2)	(0,1)	(167,3)	(118,4)	(-4,9)	(-13,0)	(166,0)	(1,0)	(1,0)	
L1D -170>	(33,82)	(170,4)	(-168,8)	(0,5)	(6,23)	(-167,2)	(20,1)	(1,0)	(-50,0)	(438,0)	(1,0)	(1,0)	(1,0)	(1,0)	(1,0)	(1,0)	
L1D -169>	(-6,8)	(27,9)	(169,9)	(1,9)	(0,19)	(2,1)	(6,2)	(35,1)	(50,1)	(167,1)	(-1,10)	(10,1)	(-170,1)	(186,1)	(1,0)	(1,0)	
L1D -168>	(0,2)	(-4,1)	(87,5)	(1,25)	(-3,86)	(3,0)	(343,75)	(338,3)	(-320,0)	(2,0)	(1,0)	(1,0)	(1,0)	(1,0)	(1,0)	(1,0)	
L1D -167>	(105,1)	(-4,9)	(0,6)	(86,115)	(167,14)	(96,0)	(342,0)	(173,0)	(-6,1)	(1,0)	(1,0)	(1,0)	(1,0)	(1,0)	(1,0)	(1,0)	
L1D -166>	(1,4)	(2,3)	(44,1)	(-4,98)	(0,7)	(348,1)	(280,1)	(384,1)	(154,0)	(1,0)	(1,0)	(1,0)	(1,0)	(1,0)	(1,0)	(1,0)	
L1D -165>	(164,1)	(1,3)	(0,16)	(-1,1)	(13,1)	(344,1)	(6,1)	(166,2)	(5,2)	(-5,1)	(1,0)	(1,0)	(1,0)	(1,0)	(1,0)	(1,0)	
L1D -164>	(-6,30)	(164,2)	(169,82)	(165,3)	(91,1)	(0,8)	(2,1)	(1,4)	(57,0)	(118,0)	(-26,0)	(7,0)	(4,1)	(366,0)	(60,0)	(420,0)	
L1D -163>	(27,6)	(1,2)	(162,1)	(6,7)	(17,1)	(134,1)	(0,5)	(-6,1)	(163,5)	(24,3)	(164,1)	(136,1)	(-135,2)	(338,1)	(161,1)	(-14,1)	
L1D -162>	(1,4)	(162,4)	(54,46)	(163,1)	(-160,1)	(-172,1)	(398,1)	(85,1)	(-27,1)	(2,2)	(0,5)	(6,1)	(161,1)	(-304,1)	(109,1)	(420,1)	
L1D -161>	(0,81)	(-14,90)	(5,1)	(1,5)	(128,3)	(-8,3)	(282,1)	(161,4)	(6,1)	(162,3)	(19,2)	(-9,1)	(24,1)	(85,1)	(1,0)	(1,0)	
L1D -160>	(12,14)	(0,10)	(58,1)	(388,1)	(334,1)	(-1,1)	(18,1)	(26,2)	(85,1)	(161,5)	(2,2)	(1,4)	(7,3)	(178,1)	(8,1)	(392,1)	
L1D -159>	(-99,120)	(-98,7)	(0,3)	(342,1)	(27,1)	(2,1)	(1,1)	(410,1)	(156,1)	(1,0)	(1,0)	(1,0)	(1,0)	(1,0)	(1,0)	(1,0)	
L1D -158>	(-46,33)	(1,7)	(61,1)	(6,3)	(3,8)	(-212,1)	(17,1)	(-10,1)	(0,8)	(-2,2)	(128,1)	(20,1)	(2,3)	(139,1)	(403,1)	(12,1)	
L1D -157>	(1,2)	(3,78)	(2,2)	(157,6)	(13,6)	(183,0)	(158,1)	(122,0)	(6,1)	(0,3)	(124,0)	(126,0)	(4,0)	(1,0)	(1,0)	(1,0)	
L1D -156>	(-18,1)	(89,1)	(0,15)	(156,3)	(157,9)	(3,10)	(371,2)	(-138,1)	(26,1)	(110,1)	(247,1)	(123,1)	(6,1)	(159,1)	(23,1)	(231,1)	
L1D -155>	(0,8)	(155,6)	(1,3)	(25,1)	(-30,1)	(2,3)	(122,1)	(219,1)	(1,0)	(1,0)	(1,0)	(1,0)	(1,0)	(1,0)	(1,0)	(1,0)	
L1D -154>	(154,4)	(155,10)	(0,9)	(-3,1)	(28,1)	(81,1)	(32,1)	(-20,1)	(420,1)	(1,4)	(-134,1)	(-1,1)	(1,0)	(1,0)	(1,0)	(1,0)	
L1D -153>	(41,1)	(1,9)	(154,4)	(0,5)	(12,13)	(5,3)	(153,5)	(-80,1)	(-108,1)	(27,1)	(2,1)	(150,1)	(3,1)	(-98,1)	(1,0)	(1,0)	
L1D -152>	(1,8)	(153,7)	(0,23)	(6,2)	(152,5)	(12,6)	(2,1)	(85,2)	(99,2)	(151,1)	(44,1)	(-50,1)	(5,2)	(26,2)	(20,1)	(172,1)	
L1D -151>	(0,12)	(1,6)	(-304,1)	(151,3)	(5,1)	(-126,1)	(389,1)	(152,2)	(17,1)	(131,1)	(-13,1)	(-5,1)	(284,1)	(7,1)	(-34,1)	(29,1)	
L1D -150>	(69,1)	(0,8)	(149,1)	(1,7)	(151,4)	(150,5)	(91,1)	(-40,1)	(83,1)	(148,1)	(-104,1)	(197,1)	(-9,1)	(5,1)	(-2,1)	(152,1)	
L1D -149>	(0,11)	(1,8)	(3,111)	(150,3)	(123,1)	(13,12)	(362,1)	(4,3)	(149,6)	(182,1)	(6,1)	(27,2)	(20,1)	(-84,1)	(180,1)	(-148,1)	
L1D -148>	(144,3)	(1,13)	(-1,2)	(-10,4)	(0,8)	(3,32)	(71,1)	(13,5)	(-147,1)	(-196,1)	(50,1)	(149,6)	(422,1)	(38,1)	(2,1)	(81,2)	
L1D -147>	(141,70)	(166,1)	(17,1)	(29,1)	(-33,18)	(0,1)	(145,1)	(148,0)	(-22,0)	(147,0)	(2,0)	(1,0)	(1,0)	(1,0)	(1,0)	(1,0)	
L1D -146>	(147,1)	(9,111)	(2,45)	(-33,22)	(0,3)	(65,0)	(29,0)	(73,0)	(144,0)	(1,1)	(146,1)	(-8,0)	(-14,2)	(32,0)	(100,0)	(1,0)	
L1D -145>	(2,2)	(12,47)	(1,11)	(144,1)	(5,25)	(145,7)	(147,6)	(-14,20)	(9,4)	(146,5)	(-1,1)	(10,1)	(47,1)	(0,7)	(7,3)	(-2,1)	
L1D -144>	(7,97)	(0,81)	(73,1)	(2,1)	(4,0)	(336,0)	(-26,22)	(-9,1)	(125,0)	(144,3)	(9,0)	(151,0)	(-7,0)	(145,2)	(12,4)	(154,0)	
L1D -143>	(19,16)	(0,24)	(-1,2)	(1,2)	(143,9)	(74,1)	(144,3)	(75,1)	(27,3)	(147,3)	(-9,3)	(38,1)	(123,1)	(2,1)	(406,1)	(-87,1)	
L1D -142>	(5,10)	(0,13)	(44,1)	(142,10)	(19,15)	(32,3)	(71,2)	(1,11)	(-1,2)	(155,1)	(372,1)	(3,6)	(2,3)	(150,1)	(144,3)	(122,3)	
L1D -141>	(0,8)	(23,1)	(141,7)	(47,1)	(178,1)	(140,1)	(24,1)	(-3,2)	(-1,1)	(-38,1)	(142,5)	(-33,11)	(6,1)	(3,1)	(148,1)	(1,2)	
L1D -140>	(0,14)	(186,1)	(1,8)	(64,1)	(140,11)	(73,1)	(141,6)	(-3,2)	(-136,1)	(160,1)	(-33,5)	(-20,1)	(121,1)	(61,1)	(-139,1)	(38,1)	
L1D -139>	(0,6)	(1,5)	(139,5)	(492,1)	(-2,2)	(13,1)	(-34,1)	(140,1)	(3,11)	(19,5)	(378,1)	(138,1)	(52,1)	(122,1)	(-1,1)	(29,1)	
L1D -138>	(1,7)	(165,1)	(138,15)	(136,1)	(0,12)	(20,1)	(5,2)	(-59,1)	(68,1)	(-54,1)	(3,1)	(-20,1)	(-232,1)	(318,1)	(-1,1)	(77,1)	
L1D -137>	(0,7)	(224,1)	(-7,97)	(200,1)	(190,0)	(194,0)	(137,0)	(138,1)	(19,0)	(216,0)	(-33,26)	(-14,0)	(1,0)	(1,0)	(1,0)	(1,0)	
L1D -136>	(0,127)	(135,1)	(374,1)	(137,5)	(-4,1)	(66,1)	(1,2)	(136,5)	(-9,2)	(4,1)	(-32,1)	(2,1)	(1,0)	(1,0)	(1,0)	(1,0)	
L1D -135>	(0,97)	(1,7)	(7,15)	(2,7)	(6,36)	(111,1)	(134,3)	(135,7)	(-9,5)	(-82,1)	(3,2)	(17,1)	(136,1)	(-4,1)	(8,1)	(-34,1)	
L1D -134>	(5,7)	(1,6)	(0,16)	(135,3)	(412,1)	(20,1)	(134,7)	(50,3)	(-94,1)	(114,1)	(68,1)	(44,2)	(-9,3)	(414,1)	(416,1)	(-14,1)	
L1D -133>	(-3,29)	(-1,2)	(1,6)	(134,4)	(188,1)	(133,4)	(0,5)	(-4,1)	(29,2)	(35,1)	(2,3)	(6,4)	(-5,6)	(-12,4)	(-50,1)	(1,0)	
L1D -132>	(-3,1)	(6,80)	(142,1)	(-1,0)	(-12,0)	(33,2)	(179,23)	(133,1)	(132,2)	(0,4)	(-94,0)	(1,2)	(204,0)	(1,0)	(1,0)	(1,0)	
L1D -131>	(6,25)	(89,1)	(1,6)	(0,12)	(-128,1)	(-52,1)	(131,10)	(24,1)	(-8,1)	(33,1)	(179,3)	(41,1)	(29,1)	(132,2)	(35,2)	(-1,1)	
L1D -130>	(58,1)	(1,30)	(0,12)	(21,4)	(-1,1)	(130,5)	(336,1)	(38,1)	(131,1)	(57,1)	(52,1)	(-340,1)	(24,1)	(306,1)	(2,2)	(-2,1)	
L1D -129>	(0,8)	(1,1)	(-1,1)	(129,3)	(6,2)	(130,2)	(3,5)	(-30,1)	(155,1)	(-26,1)	(-128,1)	(1,0)	(1,0)	(1,0)	(1,0)	(1,0)	
L1D -128>	(0,21)	(6,3)	(1,5)	(2,6)	(102,1)	(179,5)	(-2,14)	(114,1)	(53,1)	(129,6)	(-1,1)	(128,3)	(24,1)	(38,1)	(51,1)	(1,0)	
L1D -127>	(1,5)	(47,1)	(-1,2)	(29,1)	(0,9)	(-13,2)	(127,6)	(2,1)	(128,2)	(124,1)	(274,1)	(5,1)	(315,1)	(-126,1)	(1,0)	(1,0)	
L1D -126>	(1,8)	(173,11)	(68,1)	(6,105)	(52,1)	(0,8)	(179,29)	(-212,1)	(222,1)	(33,10)	(127,1)	(20,1)	(390,1)	(126,8)	(2,4)	(274,1)	
L1D -125>	(1,3)	(125,5)	(126,2)	(5,3)	(90,1)	(0,8)	(6,2)	(300,1)	(23,1)	(1,0)	(1,0)	(1,0)	(1,0)	(1,0)	(1,0)	(1,0)	
L1D -124>	(-1,1)	(21,101)	(-124,1)	(0,17)	(1,8)	(125,6)	(3,1)	(5,2)	(124,8)	(-137,1)	(-20,1)	(6,1)	(-36,1)	(2,2)	(192,1)	(-259,1)	
L1D -123>	(105,103)	(1,1)	(17,1)	(458,0)	(124,0)	(0,4)	(123,1)	(4,0)	(122,0)	(-138,0)	(3,0)	(1,0)	(1,0)	(1,0)	(1,0)	(1,0)	
L1D -122>	(117,114)	(0,2)	(-20,0)	(-138,0)	(122,2)	(-137,0)	(20,0)	(-222,0)	(-204,0)	(1,1)	(1,0)	(1,0)	(1,0)	(1,0)	(1,0)	(1,0)	
L1D -121>	(1,8)	(11,12)	(121,13)	(-1,1)	(-114,1)	(6,2)	(156,1)	(122,7)	(144,1)	(117,3)	(222,1)	(12,2)	(0,5)	(-35,1)	(24,1)	(344,1)	
L1D -120>	(103,113)	(220,1)	(-190,1)	(1,5)	(120,4)	(92,0)	(38,0)	(6,0)	(282,0)	(3,0)	(53,0)	(-82,0)	(121,3)	(1,0)	(1,0)	(1,0)	
L1D -119>	(6,2)	(113,1)	(0,9)	(5,2)	(119,4)	(17,2)	(1,4)	(9,2)	(-1,3)	(116,2)	(2,2)	(-164,1)	(120,1)	(272,1)	(-4,1)	(18,1)	
L1D -118>	(-1,2)	(1,6)	(118,11)	(0,7)	(5,1)	(61,1)	(-137,1)	(119,4)	(-28,1)	(116,1)	(-20,1)	(2,1)	(3,1)	(235,1)	(-204,1)	(-117,1)	
L1D -117>	(71,60)	(82,56)	(-5,82)	(1,3)	(2,1)	(117,6)	(55,3)	(67,8)	(-11,1)	(4,0)	(0,2)	(118,2)	(148,0)	(112,0)	(1,0)	(1,0)	
L1D -116>	(117,6)	(70,2)	(81,123)	(-7,96)	(1,4)	(-214,2)	(116,11)	(-76,1)	(0,6)	(380,1)	(20,1)	(3,1)	(-1,2)	(135,1)	(87,1)	(49,1)	
L1D -115>	(-5,101)	(80,95)	(69,55)	(98,31)	(1,5)	(115,9)	(-76,1)	(53,7)	(0,6)	(3,5)	(116,3)	(194,1)	(65,5)	(112,4)	(333,1)	(-342,1)	
L1D -114>	(1,10)	(113,1)	(0,13)	(5,3)	(121,1)	(115,7)	(114,15)	(24,2)	(124,1)	(-253,2)	(126,1)	(118,1)	(264,1)	(68,1)	(-5,2)	(88,2)	
L1D -113>	(51,3)	(67,17)	(78,26)	(1,6)	(-9,43)	(-108,2)	(113,9)	(0,3)	(314,1)	(376,1)	(392,1)	(2,1)	(35,1)	(344,1)	(102,1)	(63,3)	
L1D -112>	(86,15)	(-4,29)	(113,15)	(61,1)	(112,10)	(111,4)	(0,15)	(-137,1)	(98,1)	(-26,1)	(-1,3)	(-2,1)	(2,2)	(1,4)	(7,3)	(117,11)	
L1D -111>	(93,76)	(45,41)	(2,2)	(6,10)	(62,1)	(142,1)	(-122,1)	(79,15)	(98,19)	(100,9)	(24,1)	(112,2)	(390,1)	(-64,1)	(111,10)	(0,6)	
L1D -110>	(60,1)	(1,5)	(0,81)	(111,1)	(-1,10)	(478,1)	(78,2)	(7,1)	(97,4)	(6,0)	(-94,0)	(99,6)	(98,6)	(110,4)	(9,1)	(69,0)	
L1D -109>	(109,2)	(424,1)	(98,3)	(100,3)	(1,9)	(97,28)	(0,9)	(-63,1)	(89,1)	(-20,1)	(110,3)	(-1,2)	(99,54)	(6,1)	(-108,1)	(7,7)	
L1D -108>	(107,3)	(-54,39)	(43,0)	(-10,36)	(-6,5)	(0,36)	(78,75)	(108,2)	(99,0)	(28,0)	(60,0)	(-1,1)	(-118,0)	(97,5)	(-5,0)	(1,0)	
L1D -107>	(108,85)	(1,1)	(107,13)	(-106,15)	(0,4)	(109,0)	(24,0)	(10,0)	(6,3)	(-54,3)	(104,0)	(1,0)	(1,0)	(1,0)	(1,0)	(1,0)	
L1D -106>	(0,84)	(3,5)	(106,19)	(107,12)	(1,13)	(5,4)	(117,12)	(6,2)	(-16,1)	(24,2)	(52,1)	(13,1)	(99,3)	(-43,1)	(-12,1)	(64,1)	
L1D -105>	(24,0)	(0,18)	(-4,27)	(86,8)	(106,3)	(-1,0)	(-328,102)	(-2,1)	(105,2)	(1,0)	(1,0)	(1,0)	(1,0)	(1,0)	(1,0)	(1,0)	
L1D -104>	(-2,11)	(3,9)	(-108,2)	(5,2)	(104,18)	(0,14)	(50,1)	(-1,5)	(20,1)	(18,1)	(1,11)	(105,20)	(200,1)	(-156,1)	(92,1)	(274,1)	
L1D -103>	(60,116)	(-10,0)	(99,0)	(103,0)	(7,1)	(-1,1)	(1,0)	(1,0)	(1,0)	(1,0)	(1,0)	(1,0)	(1,0)	(1,0)	(1,0)	(1,0)	
L1D -102>	(95,1)	(1,9)	(101,1)	(102,16)	(-78,1)	(0,15)	(15,2)	(120,1)	(6,2)	(108,1)	(103,5)	(-152,1)	(5,2)	(-1,2)	(180,1)	(-101,2)	
L1D -101>	(1,11)	(-272,1)	(-108,1)	(3,4)	(98,10)	(6,3)	(102,8)	(0,9)	(101,8)	(13,3)	(24,1)	(140,2)	(-76,1)	(366,1)	(12,1)	(-137,1)	
L1D -100>	(62,4)	(1,7)	(101,10)	(61,2)	(100,14)	(71,3)	(99,1)	(2,2)	(79,1)	(-4,1)	(58,1)	(68,1)	(5,2)	(-12,1)	(6,1)	(0,6)	
L1D -99>	(0,58)	(62,93)	(24,24)	(99,26)	(-1,0)	(87,4)	(79,0)	(110,1)	(98,4)	(61,3)	(60,10)	(-80,0)	(258,0)	(78,9)	(89,7)	(1,0)	
L1D -98>	(98,86)	(-1,24)	(0,97)	(60,104)	(-197,0)	(78,91)	(87,0)	(28,12)	(97,12)	(99,8)	(109,0)	(111,1)	(29,0)	(24,0)	(1,0)	(1,0)	
L1D -97>	(98,103)	(28,0)	(97,17)	(0,1)	(20,0)	(1,0)	(99,2)	(29,30)	(6,0)	(262,0)	(-1,0)	(-96,1)	(1,0)	(1,0)	(1,0)	(1,0)	
L1D -96>	(-9,64)	(15,0)	(0,2)	(1,1)	(85,0)	(107,11)	(96,2)	(-1,1)	(46,0)	(98,1)	(97,2)	(4,0)	(-28,0)	(-181,0)	(176,0)	(1,0)	
L1D -95>	(1,23)	(24,5)	(0,8)	(95,12)	(5,1)	(130,1)	(96,2)	(75,1)	(2,4)	(8,1)	(489,1)	(-128,1)	(148,1)	(59,4)	(467,1)	(364,1)	
L1D -94>	(100,1)	(95,5)	(117,1)	(5,1)	(1,11)	(74,1)	(0,14)	(248,1)	(3,1)	(94,14)	(13,4)	(370,1)	(-12,1)	(93,1)	(91,1)	(-258,1)	
L1D -93>	(2,0)	(-8,75)	(146,0)	(24,1)	(107,4)	(93,0)	(0,0)	(102,0)	(94,0)	(132,0)	(128,0)	(1,0)	(1,0)	(1,0)	(1,0)	(1,0)	
L1D -92>	(97,15)	(-4,3)	(6,1)	(-9,123)	(-91,1)	(107,28)	(93,10)	(1,5)	(-20,1)	(0,8)	(86,2)	(92,3)	(-41,1)	(-204,1)	(-137,0)	(1,0)	
L1D -91>	(0,1)	(96,114)	(175,4)	(91,0)	(-52,0)	(-108,0)	(22,0)	(130,0)	(-53,0)	(1,0)	(1,0)	(1,0)	(1,0)	(1,0)	(1,0)	(1,0)	
L1D -90>	(96,1)	(0,0)	(91,90)	(90,0)	(5,0)	(-240,0)	(64,0)	(342,0)	(1,0)	(1,0)	(1,0)	(1,0)	(1,0)	(1,0)	(1,0)	(1,0)	
L1D -89>	(98,52)	(87,20)	(0,44)	(4,1)	(89,3)	(1,3)	(99,3)	(-88,2)	(-1,2)	(-108,2)	(6,1)	(-202,1)	(90,2)	(-56,1)	(78,3)	(148,1)	
L1D -88>	(6,85)	(416,1)	(1,1)	(108,0)	(34,1)	(26,26)	(9,1)	(88,1)	(211,0)	(5,0)	(89,0)	(-108,0)	(0,4)	(485,0)	(-3,0)	(-375,0)	
L1D -87>	(98,117)	(0,79)	(-4,1)	(-86,1)	(6,1)	(1,2)	(97,0)	(88,0)	(346,0)	(26,1)	(1,0)	(1,0)	(1,0)	(1,0)	(1,0)	(1,0)	
L1D -86>	(5,1)	(0,15)	(86,11)	(1,19)	(87,58)	(85,8)	(-137,1)	(174,1)	(-4,38)	(336,1)	(208,1)	(-78,1)	(386,1)	(296,1)	(-2,2)	(-1,39)	
L1D -85>	(90,3)	(0,1)	(-8,84)	(107,12)	(45,6)	(72,4)	(1,10)	(-9,1)	(-1,0)	(92,6)	(82,0)	(86,2)	(1,0)	(1,0)	(1,0)	(1,0)	
L1D -84>	(2,2)	(6,8)	(-1,3)	(1,8)	(84,6)	(-137,4)	(44,1)	(85,23)	(26,3)	(0,12)	(-146,1)	(340,1)	(88,1)	(166,1)	(110,1)	(-82,1)	
L1D -83>	(-9,113)	(0,1)	(-248,1)	(-5,25)	(108,10)	(90,0)	(136,0)	(161,0)	(93,0)	(1,0)	(1,0)	(1,0)	(1,0)	(1,0)	(1,0)	(1,0)	
L1D -82>	(71,8)	(117,103)	(-5,5)	(46,1)	(6,1)	(16,0)	(26,1)	(82,2)	(1,0)	(83,0)	(0,0)	(1,0)	(1,0)	(1,0)	(1,0)	(1,0)	
L1D -81>	(-7,120)	(116,120)	(-26,1)	(1,13)	(7,6)	(43,1)	(81,14)	(-1,3)	(-13,16)	(0,3)	(75,11)	(3,4)	(82,1)	(-162,1)	(-156,0)	(189,2)	
L1D -80>	(115,64)	(69,10)	(103,0)	(74,0)	(18,4)	(-223,0)	(-5,0)	(4,0)	(81,2)	(0,0)	(1,1)	(-94,0)	(1,0)	(1,0)	(1,0)	(1,0)	
L1D -79>	(0,14)	(61,97)	(1,18)	(132,4)	(75,38)	(209,1)	(62,3)	(-108,1)	(99,9)	(2,2)	(76,1)	(114,2)	(79,1)	(3,0)	(355,0)	(382,0)	
L1D -78>	(60,90)	(0,64)	(99,6)	(-1,3)	(98,14)	(87,9)	(358,0)	(67,0)	(113,10)	(83,1)	(89,2)	(354,0)	(79,0)	(1,0)	(1,0)	(1,0)	
L1D -77>	(1,88)	(120,2)	(77,6)	(78,2)	(0,5)	(-44,1)	(228,1)	(-1,1)	(4,1)	(89,1)	(36,1)	(130,1)	(55,1)	(-12,1)	(52,1)	(3,1)	
L1D -76>	(-137,3)	(47,4)	(1,16)	(2,10)	(76,9)	(82,13)	(0,12)	(83,3)	(77,3)	(52,1)	(-24,1)	(204,1)	(-34,1)	(75,1)	(-56,1)	(5,1)	
L1D -75>	(76,1)	(0,85)	(1,38)	(18,14)	(32,9)	(-108,1)	(-1,1)	(358,0)	(75,3)	(132,1)	(468,0)	(94,0)	(33,2)	(-271,0)	(360,0)	(1,0)	
L1D -74>	(17,95)	(-1,3)	(372,1)	(246,1)	(1,5)	(0,4)	(483,1)	(74,7)	(26,2)	(-3,1)	(2,3)	(32,1)	(455,1)	(75,1)	(103,1)	(-28,0)	
L1D -73>	(1,13)	(130,6)	(73,19)	(392,1)	(-234,1)	(0,6)	(2,1)	(3,2)	(67,3)	(-164,1)	(-108,5)	(-1,1)	(74,8)	(70,1)	(221,1)	(-96,1)	
L1D -72>	(1,25)	(2,3)	(-6,2)	(18,13)	(0,18)	(24,6)	(72,18)	(-4,48)	(-2,2)	(3,1)	(73,22)	(105,1)	(71,2)	(66,1)	(-148,1)	(-17,1)	
L1D -71>	(76,26)	(128,4)	(71,8)	(72,7)	(116,3)	(424,1)	(-108,3)	(90,1)	(-215,2)	(1,91)	(0,1)	(117,1)	(-1,1)	(-6,1)	(412,1)	(162,1)	
L1D -70>	(-85,119)	(1,1)	(154,1)	(386,1)	(70,8)	(0,3)	(-252,0)	(394,0)	(71,7)	(2,0)	(-230,0)	(1,0)	(1,0)	(1,0)	(1,0)	(1,0)	
L1D -69>	(22,69)	(1,0)	(-87,1)	(-1,0)	(-86,1)	(-85,9)	(69,3)	(0,0)	(207,0)	(-13,0)	(115,0)	(-108,0)	(1,0)	(1,0)	(1,0)	(1,0)	
L1D -68>	(1,17)	(-20,1)	(239,1)	(69,108)	(22,16)	(408,1)	(-86,1)	(2,1)	(57,1)	(0,4)	(201,1)	(68,4)	(101,1)	(204,1)	(5,3)	(-108,1)	
L1D -67>	(1,111)	(0,4)	(68,5)	(67,30)	(2,4)	(3,10)	(61,30)	(-16,2)	(342,1)	(116,1)	(203,2)	(230,1)	(5,1)	(-108,1)	(72,1)	(1,0)	
L1D -66>	(-46,1)	(0,2)	(-45,121)	(76,0)	(-108,0)	(67,10)	(66,2)	(64,0)	(-1,0)	(1,2)	(-2,0)	(1,0)	(1,0)	(1,0)	(1,0)	(1,0)	
L1D -65>	(1,22)	(65,23)	(2,5)	(6,11)	(0,8)	(61,3)	(-1,3)	(59,25)	(3,13)	(118,1)	(195,1)	(24,7)	(66,6)	(70,1)	(62,1)	(146,1)	
L1D -64>	(69,24)	(1,8)	(-6,41)	(65,46)	(64,21)	(7,4)	(81,1)	(-4,9)	(0,25)	(2,3)	(136,1)	(252,1)	(70,1)	(-182,1)	(63,1)	(24,1)	
L1D -63>	(1,14)	(108,4)	(63,8)	(64,2)	(0,6)	(24,2)	(4,2)	(146,1)	(416,1)	(100,2)	(156,2)	(124,1)	(-192,1)	(435,1)	(2,1)	(142,1)	
L1D -62>	(0,83)	(1,4)	(8,13)	(-23,28)	(18,1)	(154,2)	(65,4)	(63,7)	(68,5)	(92,1)	(366,1)	(-18,2)	(69,1)	(62,7)	(-137,1)	(2,10)	
L1D -61>	(1,123)	(-1,0)	(0,0)	(99,3)	(62,0)	(61,3)	(257,1)	(372,0)	(79,0)	(1,0)	(1,0)	(1,0)	(1,0)	(1,0)	(1,0)	(1,0)	
L1D -60>	(60,106)	(-1,17)	(99,44)	(0,20)	(104,1)	(-32,0)	(372,0)	(250,0)	(6,1)	(1,0)	(1,0)	(1,0)	(1,0)	(1,0)	(1,0)	(1,0)	
L1D -59>	(1,77)	(0,7)	(158,1)	(59,19)	(69,2)	(5,2)	(-108,5)	(116,3)	(50,1)	(-9,1)	(60,5)	(-1,3)	(33,1)	(-3,1)	(1,0)	(1,0)	
L1D -58>	(0,13)	(61,6)	(1,5)	(-2,2)	(-9,1)	(418,1)	(-6,1)	(58,22)	(-4,72)	(-14,5)	(5,3)	(59,5)	(89,1)	(103,1)	(176,1)	(-37,1)	
L1D -57>	(-10,7)	(57,73)	(62,3)	(-1,6)	(58,8)	(29,0)	(-350,0)	(-108,0)	(19,0)	(51,0)	(3,0)	(0,0)	(1,0)	(5,0)	(53,0)	(1,0)	
L1D -56>	(-108,1)	(-4,2)	(55,1)	(-32,0)	(17,0)	(6,12)	(-29,0)	(45,89)	(33,2)	(56,13)	(-8,0)	(0,2)	(57,0)	(-38,0)	(16,2)	(1,1)	
L1D -55>	(1,65)	(45,30)	(0,7)	(56,11)	(-5,2)	(55,19)	(100,2)	(-20,11)	(108,1)	(-108,4)	(62,2)	(398,1)	(-1,3)	(162,4)	(116,2)	(54,3)	
L1D -54>	(-52,6)	(-27,68)	(313,0)	(54,3)	(1,24)	(162,4)	(7,0)	(0,0)	(161,1)	(-23,2)	(-2,1)	(101,0)	(55,0)	(-132,0)	(-93,0)	(93,0)	
L1D -53>	(54,64)	(1,7)	(53,58)	(0,1)	(41,0)	(2,1)	(161,10)	(-108,0)	(44,0)	(12,0)	(-39,0)	(-228,0)	(1,0)	(1,0)	(1,0)	(1,0)	
L1D -52>	(0,60)	(32,1)	(5,5)	(52,50)	(1,10)	(24,71)	(53,29)	(380,1)	(62,2)	(10,1)	(168,1)	(4,1)	(158,1)	(-20,1)	(-284,1)	(388,1)	
L1D -51>	(1,6)	(60,3)	(-20,11)	(6,28)	(0,10)	(5,7)	(51,35)	(155,3)	(52,21)	(26,6)	(18,2)	(56,8)	(23,1)	(21,1)	(30,1)	(-2,2)	
L1D -50>	(55,9)	(97,97)	(60,3)	(0,4)	(51,3)	(48,1)	(8,1)	(24,4)	(1,2)	(50,10)	(5,1)	(4,67)	(152,1)	(-1,1)	(324,2)	(18,2)	
L1D -49>	(1,15)	(49,29)	(45,9)	(56,66)	(18,16)	(41,2)	(0,11)	(44,2)	(2,15)	(50,11)	(19,7)	(-228,2)	(17,1)	(6,2)	(149,2)	(29,4)	
L1D -48>	(18,22)	(0,13)	(-29,14)	(6,8)	(17,19)	(47,19)	(-4,3)	(1,12)	(212,1)	(7,24)	(9,6)	(48,10)	(37,3)	(169,1)	(55,4)	(49,43)	
L1D -47>	(47,95)	(0,12)	(-108,27)	(2,1)	(48,1)	(14,0)	(-246,0)	(1,0)	(1,0)	(1,0)	(1,0)	(1,0)	(1,0)	(1,0)	(1,0)	(1,0)	
L1D -46>	(398,1)	(93,21)	(45,88)	(26,0)	(44,61)	(56,20)	(-4,32)	(3,0)	(-108,0)	(4,0)	(-23,0)	(47,0)	(5,0)	(1,4)	(1,0)	(1,0)	
L1D -45>	(93,121)	(1,11)	(72,3)	(384,1)	(-222,1)	(45,2)	(0,1)	(-2,1)	(-208,1)	(-46,1)	(12,1)	(5,1)	(2,1)	(44,0)	(-108,0)	(1,0)	
L1D -44>	(131,3)	(43,92)	(-9,17)	(0,38)	(41,3)	(1,15)	(45,40)	(19,15)	(2,2)	(49,2)	(44,34)	(20,1)	(56,14)	(-232,1)	(-108,1)	(134,1)	
L1D -43>	(-12,12)	(1,12)	(-13,7)	(-10,1)	(-2,1)	(285,1)	(70,7)	(0,1)	(44,1)	(43,1)	(-7,77)	(48,2)	(2,1)	(-380,0)	(6,2)	(23,0)	
L1D -42>	(33,80)	(6,38)	(30,2)	(-35,2)	(-12,1)	(42,11)	(80,1)	(81,0)	(0,2)	(-14,0)	(388,0)	(26,0)	(40,0)	(-43,4)	(321,0)	(43,4)	
L1D -41>	(8,22)	(6,55)	(-222,3)	(-1,12)	(5,7)	(1,12)	(41,28)	(-224,4)	(42,26)	(29,5)	(0,5)	(2,47)	(276,1)	(-220,11)	(-228,5)	(-212,7)	
L1D -40>	(0,11)	(-16,94)	(18,1)	(40,0)	(-82,0)	(3,1)	(32,0)	(400,0)	(41,0)	(17,0)	(6,0)	(1,0)	(1,0)	(1,0)	(1,0)	(1,0)	
L1D -39>	(0,52)	(-205,1)	(2,3)	(1,4)	(265,1)	(19,1)	(-13,1)	(18,1)	(50,100)	(39,7)	(29,4)	(-187,1)	(6,3)	(38,2)	(45,1)	(-60,1)	
L1D -38>	(36,114)	(38,23)	(2,2)	(-60,7)	(-54,1)	(-242,0)	(40,0)	(392,0)	(3,0)	(-228,0)	(18,1)	(1,0)	(45,1)	(0,3)	(1,0)	(1,0)	
L1D -37>	(196,92)	(19,3)	(1,32)	(6,8)	(0,1)	(37,10)	(2,12)	(38,2)	(70,1)	(17,5)	(-3,2)	(36,2)	(113,1)	(11,1)	(-2,1)	(-248,0)	
L1D -36>	(36,68)	(-1,2)	(38,110)	(5,1)	(37,10)	(105,1)	(1,5)	(41,4)	(3,7)	(17,2)	(-234,1)	(146,0)	(13,1)	(27,1)	(117,0)	(141,0)	
L1D -35>	(-82,117)	(35,50)	(6,6)	(-80,104)	(1,41)	(23,1)	(-81,53)	(-78,18)	(-1,1)	(42,1)	(0,2)	(16,0)	(-14,0)	(1,0)	(1,0)	(1,0)	
L1D -34>	(0,26)	(-3,3)	(1,6)	(-1,30)	(36,27)	(35,5)	(-6,1)	(3,1)	(87,1)	(38,10)	(26,76)	(-14,4)	(2,1)	(-2,0)	(-43,12)	(34,14)	
L1D -33>	(19,95)	(30,2)	(33,96)	(26,4)	(0,47)	(28,19)	(180,28)	(-54,2)	(2,11)	(20,12)	(46,2)	(50,5)	(-248,3)	(1,4)	(-62,1)	(-216,7)	
L1D -32>	(28,25)	(0,19)	(-14,94)	(102,14)	(-2,1)	(6,3)	(19,1)	(5,4)	(2,3)	(31,1)	(32,12)	(33,6)	(-24,1)	(-8,1)	(1,9)	(18,1)	
L1D -31>	(29,9)	(28,6)	(417,25)	(0,29)	(-23,4)	(-14,106)	(4,74)	(1,2)	(2,10)	(31,7)	(-10,35)	(9,11)	(-54,9)	(-17,2)	(32,1)	(-11,3)	
L1D -30>	(0,13)	(3,106)	(256,3)	(6,120)	(44,20)	(-14,7)	(-18,3)	(272,2)	(18,15)	(1,27)	(31,7)	(30,30)	(-2,27)	(268,1)	(2,5)	(-46,1)	
L1D -29>	(0,4)	(1,80)	(26,99)	(-6,2)	(16,2)	(6,30)	(30,4)	(2,7)	(-1,35)	(5,1)	(34,3)	(-248,0)	(-196,0)	(-240,0)	(29,15)	(43,77)	
L1D -28>	(2,56)	(56,24)	(7,5)	(5,1)	(24,6)	(10,84)	(28,12)	(256,10)	(105,1)	(32,29)	(0,5)	(25,31)	(1,5)	(29,2)	(-14,32)	(3,3)	
L1D -27>	(4,6)	(-13,42)	(189,4)	(1,67)	(27,81)	(40,96)	(26,1)	(80,2)	(7,1)	(28,1)	(16,1)	(-25,4)	(2,0)	(-6,0)	(9,0)	(53,1)	
L1D -26>	(26,13)	(0,30)	(45,27)	(1,57)	(27,23)	(33,114)	(34,17)	(35,40)	(180,24)	(25,34)	(7,1)	(5,21)	(19,45)	(-3,3)	(28,10)	(6,39)	
L1D -25>	(0,5)	(41,27)	(21,0)	(-13,0)	(6,0)	(1,66)	(18,1)	(-37,0)	(-57,2)	(-52,0)	(4,4)	(25,1)	(408,0)	(26,3)	(-1,0)	(15,0)	
L1D -24>	(43,2)	(19,11)	(33,17)	(41,4)	(25,7)	(0,49)	(4,2)	(6,12)	(3,5)	(-1,4)	(-6,5)	(24,9)	(23,6)	(1,115)	(-61,1)	(18,2)	
L1D -23>	(1,32)	(22,68)	(0,84)	(-11,2)	(-12,3)	(2,48)	(3,24)	(-10,1)	(23,42)	(-13,2)	(-54,1)	(68,0)	(-25,1)	(-6,1)	(-7,40)	(24,0)	
L1D -22>	(2,42)	(28,1)	(13,80)	(0,19)	(7,27)	(-1,1)	(250,107)	(1,40)	(25,6)	(-6,4)	(-3,12)	(22,4)	(10,2)	(-5,2)	(4,1)	(-21,1)	
L1D -21>	(9,4)	(1,14)	(17,12)	(-78,98)	(0,8)	(3,1)	(21,61)	(-266,1)	(-3,2)	(23,1)	(108,1)	(412,0)	(-4,15)	(-14,0)	(11,0)	(-2,3)	
L1D -20>	(0,121)	(1,76)	(2,5)	(6,37)	(26,42)	(20,80)	(33,1)	(239,1)	(-78,5)	(23,38)	(24,18)	(19,37)	(9,1)	(3,9)	(13,59)	(207,2)	
L1D -19>	(-11,1)	(-12,8)	(-13,8)	(1,70)	(18,1)	(19,7)	(41,3)	(-86,3)	(-1,3)	(-7,105)	(25,2)	(16,2)	(-4,14)	(23,1)	(26,2)	(-19,1)	
L1D -18>	(1,75)	(39,1)	(38,7)	(-1,28)	(4,12)	(2,37)	(0,4)	(-5,13)	(-6,18)	(-35,14)	(22,10)	(9,3)	(-3,82)	(50,9)	(256,6)	(10,8)	
L1D -17>	(-91,7)	(1,91)	(0,7)	(9,0)	(16,49)	(-1,0)	(14,1)	(41,0)	(-7,7)	(17,5)	(2,3)	(18,2)	(12,9)	(87,0)	(56,3)	(11,1)	
L1D -16>	(1,12)	(16,118)	(-37,2)	(-25,3)	(-3,24)	(-83,37)	(2,2)	(7,5)	(14,2)	(-5,22)	(-26,2)	(0,2)	(-2,1)	(17,21)	(56,3)	(-8,1)	
L1D -15>	(13,2)	(16,7)	(31,107)	(-5,8)	(14,11)	(-254,1)	(-51,2)	(1,74)	(41,4)	(-54,1)	(0,1)	(12,1)	(3,7)	(15,16)	(2,1)	(-84,1)	
L1D -14>	(0,38)	(6,115)	(2,6)	(13,3)	(-14,56)	(-4,2)	(1,50)	(26,13)	(15,6)	(14,33)	(-26,44)	(48,1)	(9,29)	(19,2)	(39,1)	(18,1)	
L1D -13>	(1,105)	(-7,47)	(-5,120)	(202,2)	(0,37)	(13,70)	(-12,7)	(-10,1)	(14,6)	(3,3)	(19,4)	(11,11)	(-16,4)	(-54,2)	(39,6)	(20,5)	
L1D -12>	(2,63)	(1,22)	(0,11)	(4,68)	(9,6)	(12,40)	(-105,37)	(-87,1)	(11,5)	(-98,6)	(13,10)	(-23,3)	(5,10)	(10,26)	(-19,9)	(3,4)	
L1D -11>	(-12,3)	(-79,1)	(-1,6)	(-9,7)	(-11,1)	(1,49)	(-16,0)	(0,16)	(-7,65)	(13,8)	(11,3)	(2,0)	(9,6)	(4,2)	(-13,1)	(10,0)	
L1D -10>	(-98,24)	(0,93)	(3,29)	(117,26)	(146,2)	(7,34)	(-46,26)	(1,8)	(2,16)	(23,1)	(10,25)	(28,18)	(-7,14)	(-10,1)	(9,1)	(24,1)	
L1D -9>	(19,1)	(13,11)	(12,120)	(9,3)	(116,2)	(-246,0)	(2,0)	(-248,0)	(7,0)	(-224,0)	(16,0)	(-8,0)	(-18,0)	(117,3)	(-61,0)	(1,5)	
L1D -8>	(1,62)	(2,49)	(26,2)	(115,83)	(4,27)	(-23,1)	(-26,27)	(0,9)	(9,9)	(-77,2)	(-53,2)	(-16,2)	(-29,1)	(-18,40)	(27,1)	(8,12)	
L1D -7>	(0,44)	(7,53)	(-5,18)	(123,2)	(263,1)	(5,1)	(1,118)	(-26,20)	(313,1)	(-126,2)	(-29,3)	(6,3)	(105,1)	(16,1)	(-9,1)	(-1,1)	
L1D -6>	(-14,1)	(-24,4)	(1,113)	(-12,6)	(-171,1)	(-30,3)	(6,14)	(-7,4)	(145,2)	(2,2)	(113,2)	(239,3)	(33,11)	(7,7)	(-19,2)	(-168,2)	
L1D -5>	(10,80)	(1,126)	(-103,80)	(7,42)	(0,43)	(113,3)	(11,3)	(-251,17)	(-2,4)	(13,1)	(-168,1)	(-1,14)	(5,110)	(-245,9)	(-4,9)	(19,17)	
L1D -4>	(0,24)	(28,2)	(4,81)	(-171,10)	(-99,2)	(2,7)	(1,22)	(6,3)	(97,3)	(-18,27)	(-168,13)	(90,1)	(341,9)	(-273,2)	(3,10)	(22,4)	
L1D -3>	(0,79)	(3,29)	(1,33)	(2,5)	(-2,16)	(-9,20)	(90,1)	(-3,9)	(-29,1)	(-7,14)	(4,6)	(22,9)	(-20,3)	(-1,16)	(-4,2)	(6,12)	
L1D -2>	(-36,4)	(1,60)	(0,26)	(2,85)	(-11,4)	(-108,3)	(19,4)	(5,3)	(-14,3)	(7,3)	(28,4)	(48,1)	(24,8)	(12,2)	(4,2)	(3,3)	
L1D -1>	(1,69)	(-13,1)	(2,1)	(-3,15)	(39,1)	(0,39)	(5,1)	(86,1)	(87,1)	(61,3)	(-10,1)	(-16,5)	(100,2)	(-5,3)	(12,2)	(-1,5)	
L1D 0>	(0,105)	(-9,3)	(-97,1)	(-5,1)	(4,1)	(-7,1)	(33,1)	(5,3)	(3,6)	(7,3)	(20,3)	(-68,0)	(-10,2)	(-98,1)	(6,1)	(306,1)	
L1D 1>	(2,9)	(1,122)	(-43,1)	(-6,1)	(12,1)	(8,3)	(-11,1)	(-5,2)	(-1,3)	(-25,1)	(10,1)	(3,6)	(-4,2)	(84,2)	(9,1)	(-2,1)	
L1D 2>	(-6,18)	(-1,3)	(1,109)	(-2,24)	(4,3)	(-7,24)	(-13,1)	(0,15)	(19,1)	(-273,1)	(5,2)	(18,2)	(2,1)	(-38,1)	(-3,2)	(-5,1)	
L1D 3>	(1,63)	(-3,84)	(-23,2)	(5,41)	(0,20)	(-4,11)	(6,10)	(-2,2)	(10,4)	(3,1)	(-10,7)	(-5,2)	(154,1)	(-1,3)	(-238,0)	(-252,0)	
L1D 4>	(-4,107)	(-1,21)	(-7,5)	(114,3)	(6,2)	(-277,16)	(10,11)	(104,1)	(1,19)	(-3,19)	(93,1)	(86,3)	(-47,9)	(0,5)	(-5,2)	(17,3)	
L1D 5>	(1,89)	(-4,41)	(3,1)	(-5,39)	(6,7)	(0,12)	(-265,1)	(17,1)	(85,5)	(140,1)	(7,4)	(13,3)	(-3,4)	(341,1)	(-1,6)	(-33,2)	
L1D 6>	(-174,96)	(-6,113)	(36,22)	(-173,1)	(18,47)	(-1,25)	(-3,85)	(8,17)	(169,12)	(15,9)	(1,82)	(12,16)	(14,51)	(20,71)	(173,25)	(-20,40)	
L1D 7>	(-7,98)	(0,115)	(-1,126)	(-10,53)	(1,80)	(140,1)	(4,6)	(-26,18)	(-33,41)	(-4,25)	(306,2)	(-6,45)	(2,15)	(13,13)	(14,12)	(-42,24)	
L1D 8>	(-8,3)	(1,98)	(0,30)	(276,0)	(298,0)	(-34,1)	(-7,2)	(-20,6)	(-230,0)	(3,4)	(21,0)	(6,0)	(20,2)	(34,0)	(15,0)	(18,0)	
L1D 9>	(-8,18)	(1,99)	(3,6)	(17,3)	(-9,6)	(-7,12)	(-3,3)	(0,10)	(-2,8)	(-90,1)	(-33,2)	(-42,8)	(14,1)	(11,1)	(-87,16)	(7,1)	
L1D 10>	(0,68)	(1,23)	(-9,13)	(8,34)	(-8,19)	(-108,4)	(-11,10)	(255,4)	(20,1)	(135,2)	(136,3)	(-12,5)	(2,5)	(7,13)	(-6,4)	(-10,3)	
L1D 11>	(-1,10)	(-7,66)	(-24,2)	(2,5)	(0,11)	(-12,15)	(-109,1)	(1,50)	(9,3)	(-111,1)	(-10,26)	(-11,4)	(-110,5)	(7,9)	(-20,36)	(-2,25)	
L1D 12>	(1,15)	(-110,1)	(8,0)	(-3,73)	(-4,0)	(-10,4)	(6,0)	(0,1)	(-20,2)	(-56,0)	(-6,2)	(16,0)	(-2,1)	(-12,2)	(4,3)	(24,1)	
L1D 13>	(7,105)	(0,3)	(-1,11)	(-60,1)	(1,4)	(26,36)	(25,7)	(11,0)	(-14,0)	(-2,19)	(17,5)	(-10,7)	(-13,16)	(3,1)	(-85,2)	(19,0)	
L1D 14>	(30,4)	(-1,19)	(27,6)	(26,77)	(20,5)	(6,2)	(1,3)	(0,18)	(-15,4)	(28,4)	(11,7)	(-14,39)	(-13,33)	(-9,6)	(2,4)	(-25,2)	
L1D 15>	(313,84)	(-10,5)	(-1,20)	(22,4)	(0,15)	(-2,5)	(26,4)	(-25,1)	(29,7)	(-15,12)	(30,11)	(-6,0)	(1,2)	(-14,7)	(17,1)	(32,2)	
L1D 16>	(1,97)	(17,1)	(-1,0)	(40,90)	(-2,15)	(34,1)	(-32,3)	(264,0)	(0,23)	(-15,5)	(-16,3)	(32,1)	(31,2)	(222,0)	(7,3)	(3,2)	
L1D 17>	(-18,30)	(-1,31)	(0,50)	(-20,93)	(-23,78)	(-6,67)	(-31,32)	(-12,1)	(-17,18)	(-19,1)	(-11,5)	(-30,11)	(57,14)	(34,12)	(-3,69)	(-54,7)	
L1D 18>	(21,90)	(-6,24)	(-78,22)	(-23,10)	(0,60)	(5,3)	(9,1)	(-18,52)	(185,1)	(36,3)	(-19,2)	(-24,6)	(20,4)	(11,3)	(17,6)	(-3,2)	
L1D 19>	(1,120)	(-18,26)	(-314,3)	(-30,3)	(0,67)	(7,14)	(234,2)	(198,3)	(-17,3)	(6,5)	(-19,7)	(236,2)	(240,3)	(212,2)	(-6,15)	(220,1)	
L1D 20>	(-6,27)	(-20,100)	(0,28)	(-99,2)	(-26,48)	(6,3)	(154,2)	(3,10)	(-1,5)	(-38,4)	(-18,11)	(-19,1)	(8,4)	(2,1)	(-98,7)	(20,1)	
L1D 21>	(11,46)	(-1,4)	(-18,52)	(-99,64)	(-19,8)	(0,1)	(7,66)	(-8,1)	(-21,55)	(-23,33)	(-3,18)	(-17,23)	(42,4)	(-12,3)	(-20,3)	(-39,13)	
L1D 22>	(-108,23)	(9,22)	(-16,39)	(1,0)	(306,26)	(-66,24)	(-19,7)	(-21,2)	(42,0)	(-111,2)	(146,68)	(-24,4)	(-296,0)	(3,1)	(-22,0)	(2,3)	
L1D 23>	(0,22)	(-121,1)	(-23,118)	(-25,1)	(-29,1)	(189,1)	(-108,1)	(-324,1)	(-3,2)	(-289,0)	(45,0)	(48,0)	(326,0)	(1,1)	(2,0)	(1,0)	
L1D 24>	(146,106)	(32,59)	(33,6)	(0,87)	(-18,31)	(29,84)	(-21,24)	(-24,48)	(1,7)	(48,16)	(-2,1)	(50,2)	(9,38)	(2,1)	(-25,1)	(-20,17)	
L1D 25>	(-3,1)	(-27,76)	(50,1)	(-25,21)	(52,2)	(1,1)	(-114,0)	(-1,1)	(17,0)	(-6,1)	(49,2)	(54,0)	(4,1)	(-2,0)	(0,0)	(28,0)	
L1D 26>	(-28,12)	(0,4)	(1,14)	(2,17)	(-26,69)	(51,0)	(-20,16)	(-3,5)	(-7,1)	(-6,0)	(6,4)	(7,2)	(-25,4)	(-21,10)	(52,5)	(54,58)	
L1D 27>	(-108,1)	(53,57)	(-18,1)	(54,8)	(-227,3)	(-82,6)	(-27,107)	(-78,2)	(-33,12)	(-23,118)	(13,4)	(9,10)	(-81,5)	(2,10)	(-11,8)	(-39,2)	
L1D 28>	(-14,61)	(147,5)	(-28,35)	(55,2)	(-27,77)	(-26,13)	(-85,13)	(28,30)	(-54,29)	(-39,3)	(17,15)	(0,1)	(4,53)	(-4,2)	(-25,1)	(-8,1)	
L1D 29>	(-2,1)	(22,1)	(1,10)	(10,3)	(-4,4)	(69,11)	(-246,1)	(-28,74)	(0,9)	(-278,1)	(-29,4)	(-39,6)	(60,1)	(58,6)	(57,1)	(-227,2)	
L1D 30>	(26,62)	(1,25)	(-1,11)	(59,14)	(4,1)	(16,23)	(24,11)	(0,23)	(-30,68)	(60,67)	(-29,20)	(62,26)	(-76,2)	(-108,3)	(-2,22)	(-12,4)	
L1D 31>	(61,3)	(7,107)	(1,4)	(9,25)	(0,3)	(4,1)	(-2,2)	(-41,2)	(6,6)	(64,2)	(-4,1)	(17,2)	(-82,2)	(11,1)	(-31,8)	(62,9)	
L1D 32>	(-32,12)	(1,1)	(0,11)	(-4,3)	(70,97)	(63,2)	(-30,26)	(-31,2)	(-285,1)	(-56,16)	(110,1)	(-256,1)	(-236,0)	(64,4)	(-28,0)	(-2,6)	
L1D 33>	(0,42)	(-7,79)	(9,63)	(66,2)	(-2,1)	(-31,32)	(-183,1)	(68,2)	(2,12)	(-33,31)	(80,3)	(233,2)	(231,1)	(269,1)	(-41,3)	(211,6)	
L1D 34>	(-8,109)	(-28,5)	(-2,4)	(3,2)	(1,7)	(0,10)	(70,11)	(-3,4)	(67,5)	(-34,14)	(-33,7)	(68,15)	(17,6)	(-1,2)	(66,2)	(6,1)	
L1D 35>	(-117,31)	(-113,8)	(-115,17)	(-35,4)	(-116,12)	(69,1)	(0,5)	(-21,0)	(7,75)	(-241,0)	(2,1)	(70,5)	(58,0)	(188,0)	(-141,0)	(72,0)	
L1D 36>	(2,72)	(-254,0)	(-36,58)	(128,20)	(-16,8)	(-7,4)	(5,0)	(17,1)	(3,0)	(0,1)	(72,1)	(-35,0)	(-286,0)	(-2,0)	(1,0)	(71,0)	
L1D 37>	(-7,5)	(-32,1)	(-46,0)	(20,0)	(0,2)	(-1,3)	(-37,15)	(159,72)	(-2,2)	(1,0)	(-20,8)	(-190,0)	(74,2)	(17,1)	(11,0)	(73,2)	
L1D 38>	(0,91)	(-98,12)	(-2,54)	(12,5)	(1,29)	(-37,1)	(-48,1)	(-44,1)	(-30,5)	(170,1)	(242,1)	(248,1)	(-38,1)	(76,1)	(-200,0)	(386,3)	
L1D 39>	(-21,40)	(11,88)	(-10,0)	(-99,24)	(-1,5)	(-24,0)	(-30,10)	(-108,0)	(238,0)	(-2,1)	(0,0)	(266,0)	(262,0)	(226,2)	(54,3)	(-226,0)	
L1D 40>	(386,64)	(80,1)	(-56,0)	(156,0)	(-34,3)	(-60,0)	(-37,0)	(54,0)	(-26,0)	(-39,0)	(-40,74)	(-36,0)	(0,0)	(1,0)	(1,0)	(1,0)	
L1D 41>	(7,100)	(-2,2)	(386,6)	(-252,1)	(-278,1)	(-229,1)	(0,4)	(267,0)	(6,2)	(-268,0)	(2,9)	(-20,1)	(3,3)	(-41,3)	(-1,0)	(81,0)	
L1D 42>	(-12,65)	(5,33)	(1,12)	(0,21)	(82,3)	(12,3)	(-42,27)	(84,27)	(86,19)	(17,17)	(-41,5)	(83,2)	(-28,16)	(-16,28)	(128,92)	(4,12)	
L1D 43>	(1,28)	(-43,12)	(5,6)	(88,1)	(2,30)	(11,80)	(58,1)	(17,4)	(-20,8)	(12,29)	(-197,1)	(86,6)	(23,1)	(0,2)	(-1,1)	(85,1)	
L1D 44>	(87,0)	(-51,0)	(-50,0)	(11,15)	(232,0)	(-44,1)	(0,4)	(88,1)	(1,71)	(258,0)	(20,0)	(2,1)	(90,0)	(12,4)	(-108,0)	(-56,0)	
L1D 45>	(-43,1)	(-9,110)	(27,6)	(-1,35)	(-44,2)	(-26,0)	(90,0)	(4,4)	(2,1)	(48,2)	(0,1)	(1,0)	(11,28)	(-31,34)	(87,0)	(10,0)	
L1D 46>	(47,54)	(-50,87)	(92,8)	(-46,7)	(20,1)	(-45,2)	(0,4)	(-6,3)	(1,2)	(2,3)	(-4,4)	(94,2)	(6,2)	(-32,7)	(4,1)	(90,1)	
L1D 47>	(0,3)	(-4,77)	(1,2)	(-31,1)	(94,1)	(-356,1)	(-47,0)	(-146,1)	(43,0)	(-108,0)	(-9,0)	(-97,2)	(101,0)	(89,0)	(148,0)	(2,1)	
L1D 48>	(-2,18)	(-4,15)	(17,1)	(3,24)	(0,23)	(-47,21)	(-93,41)	(1,23)	(95,6)	(96,32)	(-34,11)	(-1,5)	(98,19)	(-48,35)	(5,3)	(12,6)	
L1D 49>	(1,16)	(0,15)	(-49,42)	(98,24)	(97,25)	(41,2)	(-228,1)	(4,2)	(100,24)	(-2,1)	(-4,3)	(2,2)	(5,1)	(16,1)	(-20,9)	(7,4)	
L1D 50>	(21,65)	(-62,1)	(1,0)	(-50,3)	(2,7)	(100,2)	(0,5)	(-7,3)	(99,1)	(28,1)	(-2,19)	(-12,10)	(-110,11)	(102,1)	(-57,0)	(98,0)	
L1D 51>	(0,12)	(-48,3)	(1,19)	(102,39)	(101,10)	(-51,34)	(-1,2)	(5,6)	(104,18)	(182,1)	(258,1)	(2,1)	(4,2)	(69,1)	(-242,1)	(-60,1)	
L1D 52>	(2,4)	(1,33)	(0,42)	(4,52)	(103,23)	(-58,6)	(-51,35)	(-52,72)	(104,70)	(102,3)	(106,25)	(294,1)	(20,4)	(5,9)	(-6,1)	(3,7)	
L1D 53>	(-53,88)	(1,37)	(0,26)	(170,55)	(2,11)	(105,19)	(108,93)	(106,28)	(6,124)	(65,1)	(111,1)	(85,1)	(-146,8)	(4,9)	(89,2)	(72,1)	
L1D 54>	(107,49)	(0,2)	(212,1)	(1,13)	(-53,32)	(108,111)	(106,0)	(-81,3)	(109,0)	(110,0)	(-54,0)	(5,0)	(1,0)	(1,0)	(1,0)	(1,0)	
L1D 55>	(-1,81)	(-11,12)	(-2,10)	(1,25)	(3,23)	(109,7)	(-55,17)	(0,20)	(110,24)	(2,3)	(112,13)	(4,3)	(-262,2)	(121,1)	(-56,1)	(101,1)	
L1D 56>	(-28,1)	(-55,0)	(3,1)	(-62,2)	(-40,22)	(112,1)	(0,1)	(1,0)	(84,3)	(-60,0)	(26,0)	(-11,76)	(114,0)	(-56,2)	(-54,22)	(4,0)	
L1D 57>	(17,1)	(-57,72)	(116,1)	(11,0)	(-75,15)	(-2,0)	(0,0)	(4,0)	(-1,0)	(171,0)	(113,0)	(2,0)	(-112,0)	(114,2)	(1,0)	(1,0)	
L1D 58>	(170,46)	(1,9)	(-20,3)	(-56,9)	(114,3)	(0,16)	(118,14)	(8,2)	(-57,9)	(3,1)	(-58,29)	(116,29)	(-62,23)	(32,1)	(20,1)	(-2,1)	
L1D 59>	(0,14)	(1,22)	(-59,11)	(118,22)	(4,1)	(-56,25)	(-218,1)	(-240,1)	(117,5)	(-117,2)	(3,7)	(80,1)	(-1,3)	(-262,1)	(40,1)	(-39,1)	
L1D 60>	(39,79)	(-60,76)	(38,39)	(18,43)	(-61,24)	(295,0)	(120,1)	(321,4)	(0,4)	(118,0)	(-352,0)	(122,0)	(-238,0)	(5,0)	(1,0)	(1,0)	
L1D 61>	(18,17)	(-60,45)	(39,66)	(-61,4)	(38,26)	(-58,5)	(122,2)	(121,1)	(37,20)	(-7,1)	(0,1)	(124,1)	(-55,0)	(2,1)	(56,0)	(68,0)	
L1D 62>	(196,120)	(37,11)	(0,1)	(-61,1)	(14,0)	(-62,1)	(20,0)	(1,0)	(124,1)	(-1,0)	(3,1)	(1,0)	(1,0)	(1,0)	(1,0)	(1,0)	
L1D 63>	(1,13)	(-2,1)	(-63,4)	(126,7)	(-45,21)	(5,4)	(2,6)	(29,2)	(0,9)	(125,7)	(3,1)	(4,5)	(128,5)	(-125,2)	(-1,1)	(108,1)	
L1D 64>	(-1,3)	(-64,19)	(-20,4)	(1,15)	(-63,3)	(-108,1)	(-6,1)	(0,33)	(-134,1)	(-127,3)	(128,29)	(2,2)	(-68,2)	(130,4)	(3,2)	(10,1)	
L1D 65>	(-65,59)	(0,7)	(-4,9)	(17,3)	(1,11)	(5,14)	(-2,2)	(132,10)	(-59,1)	(130,13)	(-28,7)	(129,6)	(-289,1)	(2,2)	(56,2)	(4,6)	
L1D 66>	(-134,7)	(-64,6)	(-20,37)	(1,14)	(-168,1)	(131,5)	(0,16)	(40,16)	(-66,20)	(134,12)	(132,21)	(166,6)	(182,5)	(280,5)	(-65,7)	(-6,4)	
L1D 67>	(93,14)	(46,79)	(0,7)	(4,12)	(1,19)	(-4,2)	(2,5)	(133,5)	(-71,2)	(-67,122)	(136,4)	(134,21)	(7,2)	(47,2)	(68,11)	(-64,3)	
L1D 68>	(114,104)	(1,5)	(-6,1)	(-45,1)	(-20,1)	(136,8)	(0,5)	(-67,1)	(4,1)	(-68,7)	(-139,2)	(-28,1)	(164,1)	(40,1)	(82,1)	(180,1)	
L1D 69>	(-2,16)	(46,30)	(3,3)	(137,3)	(0,2)	(-64,7)	(93,4)	(2,2)	(1,8)	(-47,71)	(-4,2)	(-69,2)	(138,3)	(-46,0)	(-1,0)	(-70,0)	
L1D 70>	(288,1)	(152,6)	(7,113)	(0,4)	(9,23)	(-126,2)	(139,1)	(6,52)	(-70,6)	(140,6)	(-69,2)	(1,1)	(-19,1)	(142,3)	(138,3)	(-158,0)	
L1D 71>	(46,95)	(93,29)	(1,7)	(-4,33)	(-71,3)	(142,5)	(0,2)	(2,2)	(-7,1)	(-10,1)	(5,2)	(3,1)	(17,1)	(144,3)	(-108,1)	(141,4)	
L1D 72>	(-20,2)	(0,50)	(-11,36)	(14,19)	(1,12)	(142,4)	(143,8)	(-76,19)	(146,2)	(13,3)	(144,33)	(321,7)	(-72,30)	(-19,1)	(-52,1)	(94,1)	
L1D 73>	(2,2)	(1,15)	(0,11)	(5,2)	(145,12)	(-73,26)	(-123,1)	(146,15)	(24,3)	(-28,3)	(148,1)	(28,1)	(-323,1)	(218,1)	(-7,4)	(17,1)	
L1D 74>	(2,3)	(1,11)	(0,13)	(-72,16)	(150,6)	(-73,6)	(147,7)	(-75,1)	(148,15)	(-74,17)	(-78,1)	(198,1)	(-52,1)	(94,1)	(146,1)	(-20,1)	
L1D 75>	(-74,98)	(-75,62)	(-465,1)	(0,2)	(149,1)	(-1,1)	(68,2)	(3,2)	(312,1)	(2,1)	(-72,11)	(17,0)	(152,0)	(-2,0)	(47,0)	(150,3)	
L1D 76>	(276,1)	(3,23)	(-2,17)	(1,10)	(154,10)	(294,1)	(-19,2)	(5,5)	(-76,14)	(152,16)	(-286,1)	(0,9)	(20,3)	(-304,1)	(80,3)	(-75,4)	
L1D 77>	(14,4)	(0,9)	(-189,1)	(1,7)	(-77,3)	(154,9)	(3,6)	(-20,2)	(-1,2)	(2,2)	(153,3)	(-251,1)	(104,2)	(-7,4)	(-2,1)	(6,1)	
L1D 78>	(20,10)	(-78,96)	(-82,1)	(-79,6)	(17,0)	(-75,0)	(-18,20)	(9,10)	(11,2)	(21,4)	(1,0)	(1,0)	(1,0)	(1,0)	(1,0)	(1,0)	
L1D 79>	(-78,112)	(1,11)	(14,5)	(20,22)	(29,10)	(-18,3)	(0,3)	(-1,1)	(2,9)	(21,4)	(157,3)	(4,3)	(160,4)	(-10,4)	(-79,2)	(158,2)	
L1D 80>	(7,19)	(14,16)	(108,82)	(-20,4)	(-184,4)	(-82,17)	(35,49)	(-80,28)	(5,10)	(1,15)	(-53,16)	(86,4)	(0,19)	(100,1)	(6,34)	(-81,5)	
L1D 81>	(-80,12)	(1,12)	(35,20)	(-81,74)	(-82,87)	(-78,2)	(162,6)	(0,3)	(2,2)	(-40,1)	(-28,1)	(161,7)	(29,1)	(-54,3)	(164,3)	(41,2)	
L1D 82>	(-9,32)	(-80,18)	(1,6)	(35,53)	(-82,34)	(0,11)	(5,16)	(-36,17)	(-46,10)	(-78,1)	(-20,8)	(20,2)	(164,11)	(166,5)	(-79,8)	(86,6)	
L1D 83>	(1,15)	(-2,11)	(4,2)	(3,16)	(0,14)	(-165,1)	(-1,8)	(-294,2)	(-377,1)	(-83,2)	(35,2)	(-312,1)	(23,2)	(165,3)	(-302,1)	(-108,1)	
L1D 84>	(-4,94)	(1,8)	(2,2)	(171,1)	(-175,0)	(-57,2)	(-171,1)	(0,0)	(6,0)	(1,0)	(1,0)	(1,0)	(1,0)	(1,0)	(1,0)	(1,0)	
L1D 85>	(1,88)	(-85,1)	(-86,1)	(2,1)	(-122,0)	(0,2)	(20,0)	(-104,0)	(-10,0)	(5,0)	(-169,0)	(11,0)	(1,0)	(1,0)	(1,0)	(1,0)	
L1D 86>	(1,95)	(256,12)	(-90,116)	(-85,1)	(-6,1)	(4,1)	(0,3)	(-169,1)	(5,1)	(-86,0)	(28,0)	(-171,0)	(-60,0)	(44,0)	(1,0)	(1,0)	
L1D 87>	(1,66)	(2,2)	(-87,115)	(-86,1)	(-91,5)	(11,5)	(23,1)	(0,3)	(-172,0)	(84,3)	(5,1)	(256,19)	(3,2)	(28,0)	(-10,1)	(-96,0)	
L1D 88>	(5,8)	(-159,1)	(1,9)	(-88,10)	(0,20)	(-175,3)	(-87,5)	(20,5)	(-2,1)	(80,1)	(26,1)	(14,1)	(-246,1)	(-82,1)	(208,1)	(41,1)	
L1D 89>	(-2,55)	(10,7)	(-11,114)	(2,0)	(-89,17)	(1,1)	(0,2)	(5,0)	(-98,2)	(-20,0)	(-87,0)	(-177,0)	(17,0)	(1,0)	(1,0)	(1,0)	
L1D 90>	(1,107)	(-178,0)	(0,1)	(3,2)	(-179,1)	(-90,0)	(-2,0)	(5,0)	(-1,1)	(-177,0)	(-54,0)	(256,14)	(-89,0)	(-40,0)	(-302,0)	(1,0)	
L1D 91>	(84,122)	(-7,1)	(-372,0)	(0,0)	(-181,0)	(-410,0)	(1,0)	(1,0)	(1,0)	(1,0)	(1,0)	(1,0)	(1,0)	(1,0)	(1,0)	(1,0)	
L1D 92>	(-92,27)	(0,22)	(2,3)	(1,12)	(-266,1)	(-1,4)	(-91,7)	(4,4)	(3,1)	(-218,1)	(-10,1)	(-6,1)	(23,1)	(5,2)	(-183,4)	(241,1)	
L1D 93>	(0,48)	(-184,0)	(-93,73)	(3,0)	(1,11)	(5,0)	(2,0)	(-97,17)	(11,0)	(-39,0)	(-185,0)	(-68,0)	(1,0)	(1,0)	(1,0)	(1,0)	
L1D 94>	(0,36)	(5,4)	(44,1)	(1,9)	(-187,9)	(-93,7)	(-114,1)	(29,1)	(-94,16)	(28,1)	(-80,1)	(-256,1)	(-185,2)	(2,1)	(26,1)	(94,1)	
L1D 95>	(1,8)	(-96,1)	(-188,1)	(2,2)	(0,17)	(-95,8)	(-6,2)	(-123,1)	(-189,5)	(32,2)	(101,1)	(-136,1)	(29,1)	(-1,1)	(-2,1)	(4,1)	
L1D 96>	(-3,121)	(-189,1)	(1,41)	(-96,7)	(-20,1)	(7,0)	(0,6)	(-191,1)	(-95,2)	(5,2)	(263,0)	(-360,0)	(25,0)	(-190,0)	(1,0)	(1,0)	
L1D 97>	(2,41)	(-65,1)	(1,28)	(0,87)	(12,96)	(3,2)	(-192,0)	(-97,3)	(26,0)	(-68,6)	(-2,1)	(-69,2)	(22,0)	(-1,0)	(-193,1)	(-305,0)	
L1D 98>	(0,117)	(12,10)	(-69,12)	(-98,64)	(-99,86)	(2,5)	(-5,2)	(1,2)	(-20,7)	(-194,1)	(-38,1)	(-37,2)	(-70,1)	(-91,2)	(41,0)	(-95,2)	
L1D 99>	(1,1)	(-46,97)	(-21,11)	(-99,92)	(-37,12)	(-10,2)	(-98,51)	(0,5)	(2,0)	(-100,0)	(-2,7)	(3,0)	(-12,1)	(-39,4)	(10,3)	(-1,0)	
L1D 100>	(-46,87)	(3,3)	(-2,89)	(0,3)	(-197,1)	(-20,1)	(1,3)	(-100,2)	(4,1)	(-286,1)	(-99,1)	(10,1)	(-116,0)	(-5,0)	(-199,0)	(80,0)	
L1D 101>	(1,19)	(3,18)	(5,7)	(6,1)	(0,19)	(-200,6)	(-2,5)	(-201,5)	(-28,1)	(-101,7)	(14,3)	(-99,1)	(90,1)	(-1,1)	(41,2)	(32,1)	
L1D 102>	(9,21)	(6,4)	(7,80)	(1,34)	(-188,1)	(0,34)	(-203,16)	(-201,5)	(-102,21)	(19,2)	(-202,2)	(-260,1)	(3,1)	(206,1)	(32,1)	(-101,8)	
L1D 103>	(-5,4)	(-91,86)	(5,1)	(-104,0)	(0,8)	(14,2)	(2,0)	(3,1)	(-205,1)	(9,0)	(-108,0)	(-103,3)	(220,0)	(23,0)	(1,2)	(1,0)	
L1D 104>	(-1,127)	(8,59)	(-263,1)	(1,30)	(0,36)	(-104,38)	(-207,18)	(-103,22)	(-205,4)	(5,2)	(50,2)	(10,1)	(20,2)	(3,2)	(-206,2)	(7,4)	
L1D 105>	(-411,69)	(-2,0)	(22,6)	(-105,0)	(0,0)	(3,0)	(1,0)	(1,0)	(1,0)	(1,0)	(1,0)	(1,0)	(1,0)	(1,0)	(1,0)	(1,0)	
L1D 106>	(1,18)	(-1,3)	(0,44)	(-211,18)	(-209,8)	(-106,25)	(-105,10)	(72,1)	(4,5)	(5,12)	(3,3)	(263,1)	(-107,1)	(116,1)	(-126,6)	(-210,4)	
L1D 107>	(-113,2)	(1,88)	(-107,60)	(-213,88)	(-116,44)	(-115,37)	(0,12)	(-118,1)	(-212,1)	(-117,17)	(-42,1)	(2,2)	(-14,1)	(216,1)	(-100,0)	(15,0)	
L1D 108>	(0,23)	(-214,22)	(-152,1)	(-324,0)	(-215,2)	(1,48)	(-108,3)	(-113,1)	(-117,6)	(4,0)	(3,0)	(-1,0)	(-213,80)	(-107,25)	(-298,0)	(5,0)	
L1D 109>	(-1,89)	(-262,1)	(-109,8)	(6,2)	(1,7)	(-111,1)	(0,20)	(24,3)	(-198,1)	(-10,7)	(-216,6)	(2,1)	(296,1)	(-214,4)	(-6,18)	(-217,4)	
L1D 110>	(-1,20)	(-7,6)	(44,1)	(1,19)	(0,19)	(-110,58)	(-219,13)	(-111,26)	(-217,4)	(-109,2)	(-218,3)	(263,1)	(206,1)	(-38,2)	(-3,2)	(-256,1)	
[...]
L1D 476>	(1,2)	(-10,1)	(-206,1)	(4,2)	(1,0)	(1,0)	(1,0)	(1,0)	(1,0)	(1,0)	(1,0)	(1,0)	(1,0)	(1,0)	(1,0)	(1,0)	
L1D 477>	(4,5)	(3,1)	(1,0)	(1,0)	(1,0)	(1,0)	(1,0)	(1,0)	(1,0)	(1,0)	(1,0)	(1,0)	(1,0)	(1,0)	(1,0)	(1,0)	
L1D 478>	(1,1)	(1,0)	(1,0)	(1,0)	(1,0)	(1,0)	(1,0)	(1,0)	(1,0)	(1,0)	(1,0)	(1,0)	(1,0)	(1,0)	(1,0)	(1,0)	
L1D 479>	(4,4)	(0,1)	(-48,1)	(1,0)	(1,0)	(1,0)	(1,0)	(1,0)	(1,0)	(1,0)	(1,0)	(1,0)	(1,0)	(1,0)	(1,0)	(1,0)	
L1D 480>	(4,1)	(1,1)	(0,1)	(1,0)	(1,0)	(1,0)	(1,0)	(1,0)	(1,0)	(1,0)	(1,0)	(1,0)	(1,0)	(1,0)	(1,0)	(1,0)	
L1D 481>	(4,7)	(3,1)	(1,0)	(1,0)	(1,0)	(1,0)	(1,0)	(1,0)	(1,0)	(1,0)	(1,0)	(1,0)	(1,0)	(1,0)	(1,0)	(1,0)	
L1D 482>	(1,1)	(4,2)	(-484,1)	(-282,1)	(1,0)	(1,0)	(1,0)	(1,0)	(1,0)	(1,0)	(1,0)	(1,0)	(1,0)	(1,0)	(1,0)	(1,0)	
L1D 483>	(0,3)	(4,5)	(1,1)	(1,0)	(1,0)	(1,0)	(1,0)	(1,0)	(1,0)	(1,0)	(1,0)	(1,0)	(1,0)	(1,0)	(1,0)	(1,0)	
L1D 484>	(1,0)	(1,0)	(1,0)	(1,0)	(1,0)	(1,0)	(1,0)	(1,0)	(1,0)	(1,0)	(1,0)	(1,0)	(1,0)	(1,0)	(1,0)	(1,0)	
L1D 485>	(4,5)	(-92,1)	(1,0)	(1,0)	(1,0)	(1,0)	(1,0)	(1,0)	(1,0)	(1,0)	(1,0)	(1,0)	(1,0)	(1,0)	(1,0)	(1,0)	
L1D 486>	(4,2)	(1,1)	(1,0)	(1,0)	(1,0)	(1,0)	(1,0)	(1,0)	(1,0)	(1,0)	(1,0)	(1,0)	(1,0)	(1,0)	(1,0)	(1,0)	
L1D 487>	(4,1)	(1,0)	(1,0)	(1,0)	(1,0)	(1,0)	(1,0)	(1,0)	(1,0)	(1,0)	(1,0)	(1,0)	(1,0)	(1,0)	(1,0)	(1,0)	
L1D 488>	(1,0)	(1,0)	(1,0)	(1,0)	(1,0)	(1,0)	(1,0)	(1,0)	(1,0)	(1,0)	(1,0)	(1,0)	(1,0)	(1,0)	(1,0)	(1,0)	
L1D 489>	(4,1)	(0,1)	(1,0)	(1,0)	(1,0)	(1,0)	(1,0)	(1,0)	(1,0)	(1,0)	(1,0)	(1,0)	(1,0)	(1,0)	(1,0)	(1,0)	
L1D 490>	(-491,1)	(1,2)	(-204,1)	(0,1)	(1,0)	(1,0)	(1,0)	(1,0)	(1,0)	(1,0)	(1,0)	(1,0)	(1,0)	(1,0)	(1,0)	(1,0)	
L1D 491>	(-491,1)	(1,1)	(1,0)	(1,0)	(1,0)	(1,0)	(1,0)	(1,0)	(1,0)	(1,0)	(1,0)	(1,0)	(1,0)	(1,0)	(1,0)	(1,0)	
L1D 492>	(1,1)	(-10,1)	(2,1)	(0,1)	(-48,1)	(-492,1)	(1,0)	(1,0)	(1,0)	(1,0)	(1,0)	(1,0)	(1,0)	(1,0)	(1,0)	(1,0)	
L1D 493>	(4,1)	(1,0)	(1,0)	(1,0)	(1,0)	(1,0)	(1,0)	(1,0)	(1,0)	(1,0)	(1,0)	(1,0)	(1,0)	(1,0)	(1,0)	(1,0)	
L1D 494>	(1,2)	(-10,1)	(1,0)	(1,0)	(1,0)	(1,0)	(1,0)	(1,0)	(1,0)	(1,0)	(1,0)	(1,0)	(1,0)	(1,0)	(1,0)	(1,0)	
L1D 495>	(4,1)	(1,0)	(1,0)	(1,0)	(1,0)	(1,0)	(1,0)	(1,0)	(1,0)	(1,0)	(1,0)	(1,0)	(1,0)	(1,0)	(1,0)	(1,0)	
L1D 496>	(1,0)	(1,0)	(1,0)	(1,0)	(1,0)	(1,0)	(1,0)	(1,0)	(1,0)	(1,0)	(1,0)	(1,0)	(1,0)	(1,0)	(1,0)	(1,0)	
L1D 497>	(0,1)	(1,0)	(1,0)	(1,0)	(1,0)	(1,0)	(1,0)	(1,0)	(1,0)	(1,0)	(1,0)	(1,0)	(1,0)	(1,0)	(1,0)	(1,0)	
L1D 498>	(4,1)	(1,0)	(1,0)	(1,0)	(1,0)	(1,0)	(1,0)	(1,0)	(1,0)	(1,0)	(1,0)	(1,0)	(1,0)	(1,0)	(1,0)	(1,0)	
L1D 499>	(1,0)	(1,0)	(1,0)	(1,0)	(1,0)	(1,0)	(1,0)	(1,0)	(1,0)	(1,0)	(1,0)	(1,0)	(1,0)	(1,0)	(1,0)	(1,0)	
L1D 500>	(-488,1)	(1,0)	(1,0)	(1,0)	(1,0)	(1,0)	(1,0)	(1,0)	(1,0)	(1,0)	(1,0)	(1,0)	(1,0)	(1,0)	(1,0)	(1,0)	
L1D 501>	(4,1)	(1,0)	(1,0)	(1,0)	(1,0)	(1,0)	(1,0)	(1,0)	(1,0)	(1,0)	(1,0)	(1,0)	(1,0)	(1,0)	(1,0)	(1,0)	
L1D 502>	(1,1)	(1,0)	(1,0)	(1,0)	(1,0)	(1,0)	(1,0)	(1,0)	(1,0)	(1,0)	(1,0)	(1,0)	(1,0)	(1,0)	(1,0)	(1,0)	
L1D 503>	(4,1)	(0,1)	(1,0)	(1,0)	(1,0)	(1,0)	(1,0)	(1,0)	(1,0)	(1,0)	(1,0)	(1,0)	(1,0)	(1,0)	(1,0)	(1,0)	
L1D 504>	(1,0)	(1,0)	(1,0)	(1,0)	(1,0)	(1,0)	(1,0)	(1,0)	(1,0)	(1,0)	(1,0)	(1,0)	(1,0)	(1,0)	(1,0)	(1,0)	
L1D 505>	(1,0)	(1,0)	(1,0)	(1,0)	(1,0)	(1,0)	(1,0)	(1,0)	(1,0)	(1,0)	(1,0)	(1,0)	(1,0)	(1,0)	(1,0)	(1,0)	
L1D 506>	(0,1)	(1,0)	(1,0)	(1,0)	(1,0)	(1,0)	(1,0)	(1,0)	(1,0)	(1,0)	(1,0)	(1,0)	(1,0)	(1,0)	(1,0)	(1,0)	
L1D 507>	(1,0)	(1,0)	(1,0)	(1,0)	(1,0)	(1,0)	(1,0)	(1,0)	(1,0)	(1,0)	(1,0)	(1,0)	(1,0)	(1,0)	(1,0)	(1,0)	
L1D 508>	(1,0)	(1,0)	(1,0)	(1,0)	(1,0)	(1,0)	(1,0)	(1,0)	(1,0)	(1,0)	(1,0)	(1,0)	(1,0)	(1,0)	(1,0)	(1,0)	
L1D 509>	(1,0)	(1,0)	(1,0)	(1,0)	(1,0)	(1,0)	(1,0)	(1,0)	(1,0)	(1,0)	(1,0)	(1,0)	(1,0)	(1,0)	(1,0)	(1,0)	
L1D 510>	(1,0)	(1,0)	(1,0)	(1,0)	(1,0)	(1,0)	(1,0)	(1,0)	(1,0)	(1,0)	(1,0)	(1,0)	(1,0)	(1,0)	(1,0)	(1,0)	
L1D 511>	(1,0)	(1,0)	(1,0)	(1,0)	(1,0)	(1,0)	(1,0)	(1,0)	(1,0)	(1,0)	(1,0)	(1,0)	(1,0)	(1,0)	(1,0)	(1,0)	

L2C -64>	(1,229)	(2,37)	(0,29)	(7,16)	(-2,27)	(-9,15)	(4,18)	(-3,51)	(3,65)	(16,23)	(5,12)	(-5,234)	(-6,101)	(11,1)	(-4,61)	(-1,63)	
L2C -63>	(0,1)	(39,1)	(1,2)	(40,1)	(1,0)	(1,0)	(1,0)	(1,0)	(1,0)	(1,0)	(1,0)	(1,0)	(1,0)	(1,0)	(1,0)	(1,0)	
L2C -62>	(58,1)	(1,9)	(15,1)	(-1,4)	(12,1)	(11,1)	(18,2)	(4,1)	(44,1)	(13,1)	(1,0)	(1,0)	(1,0)	(1,0)	(1,0)	(1,0)	
L2C -61>	(1,9)	(11,2)	(43,2)	(9,2)	(7,2)	(18,2)	(-1,1)	(50,1)	(60,1)	(8,1)	(1,0)	(1,0)	(1,0)	(1,0)	(1,0)	(1,0)	
L2C -60>	(1,12)	(18,2)	(8,2)	(12,1)	(2,1)	(57,1)	(31,1)	(10,1)	(9,1)	(-1,1)	(7,1)	(37,1)	(14,1)	(1,0)	(1,0)	(1,0)	
L2C -59>	(12,1)	(1,17)	(20,1)	(3,2)	(45,1)	(46,1)	(9,1)	(16,1)	(2,1)	(4,1)	(8,1)	(13,1)	(1,0)	(1,0)	(1,0)	(1,0)	
L2C -58>	(1,10)	(34,1)	(46,1)	(5,2)	(9,2)	(7,2)	(3,3)	(57,1)	(8,4)	(-1,2)	(19,1)	(48,1)	(12,1)	(0,1)	(2,1)	(56,1)	
L2C -57>	(1,46)	(2,2)	(50,1)	(49,1)	(58,1)	(33,2)	(0,2)	(11,2)	(57,2)	(47,1)	(48,1)	(39,1)	(46,1)	(8,1)	(45,1)	(44,1)	
L2C -56>	(1,15)	(9,5)	(50,2)	(14,1)	(51,1)	(8,4)	(-3,1)	(32,1)	(2,2)	(45,1)	(43,1)	(5,1)	(53,1)	(15,1)	(0,1)	(-1,1)	
L2C -55>	(1,23)	(20,1)	(27,1)	(4,2)	(37,1)	(50,2)	(49,2)	(39,1)	(47,1)	(32,2)	(51,2)	(12,1)	(9,2)	(53,1)	(-1,1)	(19,1)	
L2C -54>	(1,18)	(54,18)	(3,16)	(49,5)	(2,1)	(5,5)	(17,1)	(55,1)	(48,3)	(52,3)	(51,2)	(24,1)	(0,3)	(7,10)	(41,2)	(8,2)	
L2C -53>	(15,7)	(50,2)	(-1,4)	(-2,2)	(1,19)	(3,3)	(44,2)	(40,1)	(12,4)	(14,12)	(21,1)	(-7,2)	(39,1)	(25,1)	(54,5)	(4,3)	
L2C -52>	(3,4)	(1,36)	(49,3)	(5,6)	(9,6)	(2,2)	(7,1)	(14,8)	(52,3)	(48,3)	(6,3)	(19,1)	(38,1)	(10,1)	(33,1)	(53,2)	
L2C -51>	(2,13)	(1,51)	(8,2)	(7,5)	(52,3)	(27,1)	(37,1)	(9,3)	(-1,2)	(30,2)	(18,2)	(29,1)	(5,3)	(-3,1)	(20,2)	(40,1)	
L2C -50>	(2,12)	(8,5)	(1,49)	(51,3)	(56,2)	(7,5)	(-6,3)	(-1,14)	(-2,1)	(9,2)	(52,4)	(4,2)	(-7,1)	(-3,1)	(43,1)	(32,3)	
L2C -49>	(-2,3)	(8,2)	(1,44)	(-3,2)	(0,3)	(3,3)	(22,2)	(4,2)	(-5,2)	(-1,2)	(49,8)	(2,15)	(38,2)	(6,1)	(34,1)	(-12,1)	
L2C -48>	(1,55)	(-1,4)	(14,2)	(18,2)	(-2,1)	(8,3)	(45,2)	(49,5)	(2,6)	(5,2)	(-8,1)	(3,2)	(28,1)	(50,1)	(31,1)	(15,1)	
L2C -47>	(1,109)	(39,2)	(-12,2)	(43,2)	(31,1)	(-1,2)	(48,3)	(-5,14)	(5,2)	(0,4)	(2,2)	(14,12)	(21,1)	(3,6)	(30,1)	(-2,4)	
L2C -46>	(2,4)	(3,6)	(51,3)	(44,7)	(1,37)	(9,1)	(31,1)	(27,1)	(-9,1)	(8,1)	(47,2)	(34,1)	(-17,2)	(4,7)	(-3,1)	(-8,2)	
L2C -45>	(1,44)	(-2,2)	(18,1)	(-1,3)	(51,1)	(8,3)	(31,2)	(19,1)	(40,2)	(34,1)	(49,1)	(12,1)	(21,1)	(28,1)	(2,4)	(11,1)	
L2C -44>	(1,55)	(3,7)	(11,4)	(2,20)	(44,14)	(-1,2)	(5,3)	(7,7)	(24,3)	(-3,3)	(42,1)	(38,1)	(43,1)	(23,1)	(4,2)	(40,1)	
L2C -43>	(1,69)	(37,3)	(5,2)	(-1,10)	(44,11)	(31,1)	(49,1)	(53,1)	(46,3)	(41,6)	(7,1)	(42,15)	(48,2)	(2,1)	(8,1)	(3,5)	
L2C -42>	(23,2)	(41,12)	(0,3)	(1,66)	(2,16)	(51,1)	(43,25)	(-20,1)	(36,1)	(5,3)	(52,1)	(12,1)	(-2,3)	(27,1)	(22,1)	(15,1)	
L2C -41>	(1,75)	(41,8)	(2,17)	(20,3)	(0,19)	(10,3)	(-1,5)	(7,2)	(35,2)	(-2,2)	(3,14)	(-11,2)	(21,2)	(43,3)	(5,1)	(42,3)	
L2C -40>	(1,62)	(40,2)	(39,4)	(41,1)	(-17,1)	(18,3)	(53,2)	(3,8)	(33,6)	(-1,5)	(2,12)	(37,1)	(-11,1)	(-8,1)	(48,1)	(20,1)	
L2C -39>	(1,68)	(3,6)	(0,8)	(40,4)	(30,1)	(6,4)	(53,1)	(33,35)	(43,1)	(52,2)	(-2,3)	(2,23)	(16,2)	(-17,1)	(-3,1)	(19,1)	
L2C -38>	(1,50)	(33,30)	(-1,1)	(-16,1)	(39,31)	(3,6)	(2,21)	(-2,3)	(48,3)	(-3,8)	(52,3)	(32,2)	(51,2)	(-7,1)	(54,1)	(28,1)	
L2C -37>	(3,7)	(38,2)	(1,53)	(18,2)	(-6,1)	(28,2)	(48,2)	(13,1)	(42,5)	(6,3)	(5,2)	(-1,6)	(46,2)	(2,15)	(27,1)	(37,3)	
L2C -36>	(21,1)	(2,45)	(1,66)	(3,13)	(4,3)	(52,1)	(6,1)	(9,2)	(30,3)	(19,3)	(33,1)	(-11,1)	(17,2)	(24,5)	(-1,9)	(-4,2)	
L2C -35>	(1,92)	(-1,10)	(32,1)	(0,30)	(20,1)	(9,4)	(-3,3)	(34,12)	(-17,1)	(3,15)	(39,2)	(2,30)	(25,2)	(29,1)	(24,4)	(27,1)	
L2C -34>	(1,101)	(2,39)	(34,7)	(29,3)	(-1,7)	(3,13)	(33,2)	(28,3)	(16,1)	(10,3)	(0,21)	(12,1)	(41,2)	(-9,2)	(37,2)	(-4,3)	
L2C -33>	(-8,3)	(1,141)	(4,5)	(2,53)	(38,1)	(28,7)	(7,6)	(3,17)	(17,2)	(13,4)	(-1,6)	(47,3)	(33,12)	(24,2)	(0,4)	(-3,2)	
L2C -32>	(1,106)	(9,3)	(8,6)	(0,4)	(2,66)	(3,33)	(33,6)	(17,4)	(-2,21)	(11,8)	(-13,3)	(-1,23)	(27,3)	(23,1)	(10,6)	(42,3)	
L2C -31>	(1,72)	(3,24)	(2,39)	(-1,24)	(10,5)	(5,4)	(13,3)	(-12,1)	(-2,30)	(0,4)	(16,2)	(26,3)	(-8,2)	(32,8)	(-11,2)	(12,9)	
L2C -30>	(31,3)	(5,4)	(1,70)	(-6,2)	(21,2)	(3,17)	(29,4)	(2,42)	(-1,17)	(-2,4)	(49,1)	(25,3)	(7,3)	(28,6)	(27,1)	(51,2)	
L2C -29>	(1,85)	(5,1)	(28,3)	(30,6)	(4,6)	(-9,2)	(2,40)	(14,4)	(-1,10)	(-2,3)	(19,3)	(3,13)	(33,3)	(38,1)	(-4,1)	(-5,3)	
L2C -28>	(1,87)	(-4,5)	(28,7)	(17,2)	(2,21)	(6,4)	(29,19)	(16,2)	(-1,13)	(0,5)	(45,1)	(-14,3)	(48,1)	(7,1)	(3,9)	(-22,1)	
L2C -27>	(1,108)	(3,21)	(10,3)	(29,9)	(26,6)	(2,45)	(4,6)	(-4,3)	(22,2)	(14,1)	(-2,6)	(36,2)	(6,4)	(28,11)	(9,4)	(42,5)	
L2C -26>	(-13,4)	(4,6)	(3,10)	(2,22)	(1,127)	(9,6)	(-1,7)	(21,3)	(7,11)	(15,5)	(26,3)	(6,5)	(5,2)	(-20,2)	(12,7)	(27,11)	
L2C -25>	(1,101)	(2,11)	(29,8)	(-19,4)	(12,10)	(-1,19)	(4,9)	(15,4)	(8,1)	(-16,1)	(13,4)	(7,6)	(26,22)	(24,5)	(14,2)	(16,7)	
L2C -24>	(1,135)	(3,13)	(25,19)	(12,17)	(6,1)	(-3,7)	(-1,23)	(42,2)	(11,15)	(21,5)	(51,3)	(4,9)	(14,4)	(8,4)	(2,12)	(24,3)	
L2C -23>	(1,161)	(9,6)	(17,14)	(27,6)	(4,4)	(21,4)	(15,5)	(-1,19)	(24,13)	(2,15)	(-4,5)	(8,10)	(25,4)	(12,2)	(3,8)	(0,1)	
L2C -22>	(21,22)	(1,106)	(4,7)	(-1,24)	(-9,2)	(2,4)	(9,4)	(23,15)	(22,3)	(3,12)	(12,11)	(15,1)	(-2,5)	(19,6)	(-20,1)	(38,1)	
L2C -21>	(18,5)	(1,153)	(48,1)	(3,13)	(42,12)	(22,16)	(-1,32)	(23,8)	(0,12)	(15,8)	(17,11)	(34,4)	(2,8)	(10,4)	(14,5)	(4,2)	
L2C -20>	(-1,23)	(37,3)	(2,66)	(12,11)	(1,161)	(-16,3)	(3,33)	(0,2)	(-3,6)	(13,2)	(25,4)	(22,5)	(16,3)	(-15,3)	(21,12)	(4,9)	
L2C -19>	(8,1)	(18,5)	(2,22)	(11,25)	(1,198)	(12,10)	(20,7)	(3,32)	(22,8)	(-15,2)	(14,9)	(4,5)	(13,4)	(-1,12)	(-3,3)	(45,2)	
L2C -18>	(2,46)	(1,252)	(25,4)	(-2,49)	(3,24)	(0,12)	(13,9)	(6,1)	(-3,7)	(24,6)	(16,23)	(12,15)	(11,5)	(-18,9)	(17,7)	(10,5)	
L2C -17>	(-36,1)	(3,21)	(18,11)	(1,189)	(-3,5)	(-6,1)	(-2,13)	(2,7)	(12,2)	(31,1)	(4,3)	(5,2)	(-1,9)	(19,3)	(9,4)	(22,1)	
L2C -16>	(-17,1)	(0,6)	(-3,5)	(10,2)	(1,164)	(17,5)	(-1,8)	(9,1)	(16,10)	(6,3)	(3,14)	(2,14)	(43,1)	(21,1)	(-4,1)	(13,5)	
L2C -15>	(1,128)	(4,1)	(-1,1)	(27,0)	(15,1)	(25,0)	(2,2)	(52,0)	(7,0)	(9,2)	(3,0)	(13,0)	(16,2)	(14,0)	(10,0)	(6,1)	
L2C -14>	(1,228)	(-26,1)	(15,7)	(13,1)	(-1,5)	(25,2)	(5,2)	(27,1)	(-2,1)	(-3,2)	(3,7)	(2,10)	(-6,1)	(11,1)	(10,8)	(12,7)	
L2C -13>	(1,196)	(-2,7)	(-4,7)	(-6,7)	(-9,4)	(14,33)	(-1,13)	(15,9)	(18,9)	(2,21)	(59,1)	(16,6)	(10,9)	(7,6)	(13,4)	(3,22)	
L2C -12>	(1,199)	(13,19)	(-4,11)	(-5,5)	(4,7)	(2,52)	(-19,1)	(6,8)	(5,11)	(7,15)	(14,13)	(-1,53)	(22,6)	(12,4)	(9,5)	(-2,22)	
L2C -11>	(1,220)	(12,59)	(-2,37)	(-1,39)	(17,17)	(22,33)	(-12,5)	(5,17)	(25,18)	(2,47)	(14,8)	(3,20)	(11,8)	(-5,1)	(18,2)	(-4,16)	
L2C -10>	(1,246)	(5,85)	(4,72)	(0,98)	(25,24)	(10,1)	(-1,62)	(2,37)	(24,32)	(-10,8)	(6,24)	(12,16)	(15,18)	(-16,3)	(11,38)	(21,5)	
L2C -9>	(1,129)	(4,7)	(-1,13)	(3,20)	(5,4)	(12,7)	(6,11)	(10,13)	(2,19)	(25,5)	(7,15)	(-8,5)	(-31,1)	(24,5)	(0,4)	(-6,6)	
L2C -8>	(2,31)	(6,11)	(1,156)	(4,11)	(-7,5)	(-1,31)	(0,11)	(11,28)	(3,19)	(12,10)	(9,34)	(-17,1)	(-11,18)	(7,8)	(5,15)	(25,4)	
L2C -7>	(31,1)	(1,240)	(8,19)	(-47,4)	(-1,25)	(2,39)	(-11,5)	(21,6)	(4,10)	(-32,8)	(9,7)	(3,37)	(6,10)	(7,9)	(5,25)	(0,23)	
L2C -6>	(1,246)	(7,52)	(4,22)	(12,4)	(2,78)	(3,32)	(0,26)	(-1,53)	(49,1)	(5,15)	(22,67)	(6,28)	(-9,7)	(20,5)	(27,1)	(8,3)	
L2C -5>	(1,198)	(-1,35)	(-11,1)	(0,106)	(4,6)	(11,1)	(2,11)	(3,10)	(6,11)	(5,3)	(-10,1)	(-6,1)	(-2,2)	(21,1)	(8,1)	(12,1)	
L2C -4>	(1,226)	(2,34)	(56,1)	(5,41)	(-9,2)	(-3,2)	(-1,135)	(0,44)	(-27,3)	(-2,8)	(3,16)	(4,6)	(7,3)	(-47,1)	(9,1)	(-4,2)	
L2C -3>	(1,196)	(-1,24)	(4,17)	(7,2)	(18,1)	(5,9)	(-4,2)	(0,63)	(-12,1)	(-2,9)	(6,3)	(2,29)	(19,3)	(3,48)	(-38,4)	(12,10)	
L2C -2>	(-12,1)	(-2,5)	(-6,2)	(7,12)	(1,181)	(-5,5)	(-3,11)	(3,59)	(-9,2)	(0,44)	(2,74)	(4,1)	(-1,17)	(5,2)	(-13,3)	(-10,2)	
L2C -1>	(-1,50)	(-21,2)	(3,33)	(2,166)	(1,87)	(6,1)	(-3,3)	(48,1)	(4,7)	(13,3)	(0,49)	(41,1)	(-10,4)	(-11,3)	(16,1)	(20,3)	
L2C 0>	(1,8)	(0,155)	(-1,43)	(-6,0)	(-3,0)	(11,0)	(2,2)	(-57,0)	(4,0)	(8,0)	(-30,0)	(3,3)	(34,0)	(-2,0)	(-5,1)	(5,0)	
L2C 1>	(-5,4)	(1,149)	(-3,2)	(26,1)	(-1,5)	(16,1)	(-4,2)	(2,8)	(22,1)	(-6,5)	(20,1)	(-23,2)	(-55,1)	(3,2)	(-2,1)	(-10,1)	
L2C 2>	(1,247)	(-1,119)	(-3,7)	(-2,33)	(-20,1)	(8,1)	(2,14)	(-4,3)	(-6,5)	(3,6)	(5,2)	(0,5)	(-8,2)	(4,4)	(-5,6)	(-10,1)	
L2C 3>	(2,20)	(1,179)	(-6,4)	(-1,64)	(3,7)	(14,4)	(-8,3)	(-2,51)	(-3,28)	(24,1)	(-5,5)	(-9,2)	(-4,6)	(19,3)	(-10,5)	(4,5)	
L2C 4>	(1,246)	(-3,54)	(-2,35)	(-1,40)	(14,34)	(2,49)	(-4,21)	(-18,3)	(3,22)	(6,10)	(-6,13)	(16,9)	(-9,1)	(0,7)	(-5,19)	(9,11)	
L2C 5>	(1,220)	(3,6)	(-1,33)	(21,1)	(-5,15)	(-3,16)	(2,30)	(0,41)	(-6,16)	(15,8)	(-9,6)	(-10,5)	(8,4)	(-2,10)	(-4,44)	(5,4)	
L2C 6>	(1,165)	(-3,6)	(-1,27)	(-5,21)	(2,13)	(-4,9)	(-7,9)	(3,28)	(-6,20)	(0,25)	(6,6)	(-12,6)	(14,5)	(-2,8)	(-44,1)	(-10,8)	
L2C 7>	(1,201)	(-8,4)	(2,33)	(-1,20)	(-16,4)	(-6,22)	(-10,3)	(-5,10)	(-7,3)	(3,6)	(5,6)	(9,1)	(-4,29)	(-2,8)	(0,2)	(-13,1)	
L2C 8>	(1,217)	(0,10)	(-17,1)	(-4,6)	(4,6)	(14,8)	(2,14)	(7,6)	(-2,7)	(-6,9)	(16,2)	(-1,29)	(-23,8)	(-7,24)	(5,6)	(-11,5)	
L2C 9>	(1,228)	(-8,10)	(16,4)	(2,20)	(3,9)	(-22,4)	(-15,4)	(14,3)	(-11,23)	(4,3)	(27,1)	(-1,28)	(-4,11)	(-10,22)	(6,14)	(-2,13)	
L2C 10>	(-1,37)	(1,207)	(-2,13)	(7,3)	(-9,16)	(-11,1)	(8,2)	(3,15)	(2,38)	(15,5)	(6,3)	(-3,11)	(-16,3)	(-17,6)	(-10,10)	(5,8)	
L2C 11>	(-6,9)	(11,23)	(-1,119)	(1,202)	(-4,20)	(-13,13)	(-2,10)	(2,33)	(-22,11)	(6,1)	(10,8)	(-27,2)	(-10,44)	(-8,2)	(-14,7)	(-26,4)	
L2C 12>	(2,49)	(-11,43)	(-7,17)	(1,245)	(-1,165)	(-13,64)	(-2,56)	(-5,24)	(-10,19)	(-14,1)	(-3,9)	(-15,9)	(-6,11)	(-4,18)	(-27,8)	(4,11)	
L2C 13>	(-12,15)	(1,231)	(26,1)	(2,19)	(-1,19)	(-8,3)	(-18,3)	(-23,2)	(0,1)	(3,8)	(4,18)	(-54,2)	(-5,13)	(10,2)	(-4,5)	(-14,3)	
L2C 14>	(-13,60)	(1,159)	(-4,12)	(-10,6)	(6,5)	(9,1)	(-18,3)	(-1,29)	(-5,8)	(-2,10)	(2,20)	(0,8)	(-17,19)	(4,5)	(-12,13)	(-19,4)	
L2C 15>	(-14,158)	(2,17)	(30,1)	(-12,4)	(-13,3)	(-16,3)	(1,36)	(0,1)	(-8,1)	(-4,1)	(13,1)	(-1,24)	(-5,3)	(-15,4)	(-6,2)	(-2,4)	
L2C 16>	(1,22)	(2,6)	(-15,173)	(11,2)	(-2,3)	(-7,1)	(-14,13)	(9,1)	(10,2)	(-8,1)	(-25,1)	(-13,1)	(-3,1)	(-1,1)	(-24,1)	(-21,1)	
L2C 17>	(-6,9)	(17,7)	(1,141)	(-10,9)	(-4,9)	(2,20)	(-17,17)	(-18,22)	(-14,24)	(-16,41)	(-1,27)	(-25,7)	(4,4)	(-15,39)	(-2,1)	(9,3)	
L2C 18>	(-16,15)	(-17,185)	(6,2)	(2,18)	(-14,5)	(-12,2)	(1,92)	(-6,2)	(-1,5)	(-25,2)	(-15,14)	(-18,1)	(7,1)	(19,13)	(10,4)	(-10,2)	
L2C 19>	(-3,6)	(-18,110)	(-17,17)	(-15,12)	(1,108)	(4,9)	(-14,12)	(2,46)	(-1,19)	(-16,37)	(-20,1)	(8,3)	(11,2)	(-4,5)	(-33,3)	(-11,3)	
L2C 20>	(1,170)	(-15,20)	(-13,57)	(-1,19)	(-19,22)	(-17,12)	(-11,6)	(-23,3)	(8,4)	(-22,3)	(-26,11)	(-14,25)	(-18,1)	(-31,25)	(-16,4)	(6,2)	
L2C 21>	(1,131)	(-20,19)	(-15,14)	(-10,4)	(3,9)	(-13,14)	(-17,16)	(-14,22)	(-27,9)	(0,1)	(-19,8)	(2,24)	(7,4)	(4,6)	(22,18)	(-30,4)	
L2C 22>	(1,109)	(2,11)	(-42,2)	(-1,49)	(7,3)	(-24,3)	(-15,196)	(-27,3)	(-20,6)	(-13,4)	(6,3)	(-32,16)	(0,2)	(-18,7)	(-21,8)	(-14,1)	
L2C 23>	(-14,2)	(-7,2)	(1,141)	(-26,3)	(2,20)	(-22,10)	(10,2)	(-1,15)	(-17,6)	(-4,5)	(21,5)	(-16,4)	(-9,7)	(-10,1)	(-2,4)	(-3,4)	
L2C 24>	(-16,2)	(2,11)	(-25,20)	(-13,14)	(-23,19)	(1,113)	(-1,32)	(-32,4)	(-14,8)	(-2,9)	(-22,7)	(21,2)	(4,1)	(16,1)	(-9,4)	(-38,2)	
L2C 25>	(1,138)	(0,5)	(-24,29)	(-13,5)	(-1,17)	(-3,10)	(-16,5)	(-19,1)	(-14,19)	(-15,6)	(-27,4)	(2,12)	(-20,2)	(-26,8)	(-12,6)	(-4,5)	
L2C 26>	(-24,5)	(1,133)	(-11,7)	(2,13)	(3,4)	(-15,3)	(-27,6)	(-6,2)	(-23,4)	(-2,1)	(-25,12)	(-1,16)	(6,3)	(10,1)	(-5,13)	(-22,4)	
L2C 27>	(1,103)	(-26,16)	(-21,12)	(2,9)	(-32,1)	(-13,6)	(-1,20)	(-5,9)	(-10,3)	(-36,2)	(-29,2)	(3,3)	(-25,14)	(-12,4)	(-27,2)	(-24,3)	
L2C 28>	(1,100)	(-2,8)	(-27,11)	(-21,4)	(3,9)	(11,6)	(-25,3)	(-5,5)	(-1,8)	(-4,1)	(-31,5)	(-22,4)	(2,18)	(-16,1)	(-7,4)	(-15,2)	
L2C 29>	(1,100)	(2,10)	(-1,13)	(-29,1)	(-26,4)	(-7,3)	(3,8)	(0,4)	(-22,2)	(-34,2)	(-28,22)	(-5,7)	(-19,1)	(-21,3)	(-12,2)	(-15,2)	
L2C 30>	(1,76)	(2,13)	(-34,2)	(-10,4)	(-1,5)	(-28,4)	(-29,10)	(3,9)	(-3,3)	(-5,2)	(-7,4)	(-20,2)	(-31,1)	(-53,1)	(-6,7)	(19,1)	
L2C 31>	(1,86)	(-10,1)	(-19,3)	(3,4)	(8,6)	(-22,1)	(5,3)	(16,1)	(-13,3)	(2,24)	(4,3)	(-55,1)	(-26,3)	(-8,3)	(-3,4)	(-5,4)	
L2C 32>	(1,63)	(-27,6)	(-31,8)	(-1,5)	(-29,4)	(-9,3)	(-26,2)	(-28,3)	(-3,2)	(4,1)	(11,1)	(2,31)	(-35,2)	(-5,3)	(0,1)	(-7,1)	
L2C 33>	(6,2)	(2,34)	(1,145)	(3,28)	(-1,9)	(4,4)	(-31,7)	(8,4)	(7,2)	(-37,1)	(-8,2)	(-32,4)	(-6,2)	(-27,1)	(-2,2)	(14,1)	
L2C 34>	(2,12)	(1,82)	(0,3)	(-27,1)	(-32,2)	(-3,5)	(4,1)	(-1,7)	(-34,14)	(-9,2)	(-24,4)	(3,6)	(-11,1)	(-37,1)	(-31,3)	(-7,2)	
L2C 35>	(1,50)	(-17,18)	(2,27)	(-35,5)	(0,2)	(-34,3)	(-28,2)	(5,1)	(-41,1)	(3,8)	(8,1)	(-25,2)	(-36,1)	(13,1)	(-1,6)	(-14,2)	
L2C 36>	(3,8)	(1,59)	(-35,5)	(-25,3)	(2,13)	(-2,2)	(-12,2)	(-3,2)	(-5,3)	(-39,1)	(-4,3)	(-20,1)	(-41,1)	(-1,5)	(-31,2)	(-47,1)	
L2C 37>	(-25,2)	(-4,2)	(1,39)	(-17,3)	(-14,3)	(-10,2)	(2,19)	(-32,2)	(-3,3)	(-1,5)	(-7,2)	(-42,6)	(-26,3)	(-30,1)	(-39,7)	(-2,1)	
L2C 38>	(6,3)	(-1,7)	(2,8)	(-4,2)	(1,48)	(3,4)	(-33,6)	(0,2)	(-26,4)	(-24,4)	(-5,2)	(-17,5)	(-43,3)	(-40,1)	(-6,3)	(-35,3)	
L2C 39>	(1,60)	(17,9)	(-41,4)	(-38,10)	(-42,1)	(-25,3)	(2,18)	(-16,1)	(-5,3)	(-7,2)	(-44,3)	(11,1)	(-32,1)	(4,1)	(-39,13)	(-20,1)	
L2C 40>	(-39,10)	(-3,6)	(-38,3)	(1,51)	(-1,5)	(13,6)	(-2,1)	(-41,4)	(-22,1)	(-24,2)	(-33,3)	(0,10)	(-23,3)	(-28,2)	(-58,1)	(2,5)	
L2C 41>	(-1,5)	(2,7)	(1,38)	(-38,4)	(-40,6)	(3,3)	(0,36)	(13,11)	(-3,3)	(-2,2)	(-18,2)	(-41,4)	(-29,1)	(-21,2)	(-44,1)	(-34,1)	
L2C 42>	(1,31)	(-20,2)	(-40,1)	(2,9)	(-32,1)	(-26,2)	(-14,2)	(3,2)	(-1,9)	(-41,18)	(0,59)	(-17,2)	(-21,2)	(-3,2)	(-43,7)	(-4,1)	
L2C 43>	(2,7)	(-50,1)	(1,87)	(7,1)	(-38,2)	(-42,12)	(-44,5)	(-60,1)	(-39,1)	(-49,3)	(-5,2)	(-36,1)	(-1,9)	(-32,1)	(-46,2)	(-40,2)	
L2C 44>	(-29,2)	(-44,4)	(1,64)	(0,15)	(-32,2)	(-2,6)	(-19,2)	(-30,2)	(2,11)	(-1,2)	(-39,3)	(-25,1)	(5,3)	(-43,4)	(-5,1)	(-46,1)	
L2C 45>	(-1,6)	(1,31)	(-41,2)	(-21,3)	(-44,5)	(-38,2)	(-55,1)	(0,6)	(-43,1)	(-60,1)	(-3,1)	(5,1)	(10,1)	(-53,1)	(-42,3)	(-16,1)	
L2C 46>	(1,33)	(-3,2)	(-17,1)	(5,2)	(2,4)	(3,5)	(-50,1)	(-45,5)	(-55,1)	(0,4)	(4,1)	(-2,1)	(-13,2)	(-33,1)	(-4,2)	(-41,2)	
L2C 47>	(-38,4)	(-51,5)	(1,31)	(-23,1)	(8,1)	(-3,4)	(2,4)	(-48,1)	(-46,5)	(10,1)	(-19,4)	(-31,1)	(-44,1)	(-49,6)	(0,5)	(-41,2)	
L2C 48>	(-50,19)	(-1,1)	(3,5)	(-45,4)	(-6,1)	(-46,1)	(1,29)	(-49,11)	(-17,1)	(-54,13)	(-33,1)	(-47,7)	(-48,6)	(-61,1)	(2,7)	(-25,1)	
L2C 49>	(1,34)	(0,4)	(-48,13)	(-47,7)	(-54,7)	(2,5)	(-2,3)	(-51,4)	(-44,4)	(-49,7)	(-50,3)	(-16,2)	(-20,2)	(-45,2)	(-52,4)	(-28,1)	
L2C 50>	(1,17)	(-52,7)	(-45,1)	(3,1)	(-51,2)	(2,9)	(-13,1)	(-48,7)	(-57,2)	(-1,2)	(-7,1)	(5,1)	(-41,1)	(-37,2)	(-49,2)	(-19,1)	
L2C 51>	(-50,8)	(1,33)	(-19,8)	(-4,1)	(-53,6)	(2,5)	(-54,3)	(-40,1)	(-52,4)	(-23,3)	(-18,1)	(5,1)	(7,1)	(-45,3)	(-2,1)	(-47,2)	
L2C 52>	(1,18)	(-57,1)	(-53,10)	(-1,2)	(-54,2)	(-49,4)	(2,4)	(-20,1)	(0,35)	(-44,1)	(-19,6)	(-43,3)	(3,1)	(5,1)	(-2,1)	(-29,2)	
L2C 53>	(-20,5)	(-51,4)	(1,21)	(2,2)	(-53,1)	(-54,4)	(-45,3)	(-3,1)	(-57,1)	(-2,2)	(-48,2)	(5,1)	(-52,2)	(-26,1)	(-33,1)	(-19,1)	
L2C 54>	(-54,4)	(-52,1)	(-51,11)	(-2,1)	(-29,1)	(0,9)	(1,7)	(-47,6)	(-57,2)	(-42,1)	(-53,3)	(-38,1)	(-41,1)	(-45,1)	(2,1)	(-1,1)	
L2C 55>	(1,5)	(-28,1)	(-42,1)	(2,2)	(-44,1)	(-50,1)	(-1,1)	(-33,1)	(-54,1)	(1,0)	(1,0)	(1,0)	(1,0)	(1,0)	(1,0)	(1,0)	
L2C 56>	(-9,1)	(1,4)	(-5,1)	(-39,1)	(-63,2)	(-55,3)	(-25,1)	(-50,1)	(-56,1)	(-36,1)	(-1,2)	(-51,1)	(-2,1)	(-33,1)	(1,0)	(1,0)	
L2C 57>	(1,7)	(-46,1)	(-6,1)	(-58,1)	(-57,2)	(-52,1)	(-51,1)	(-38,1)	(-1,1)	(-61,1)	(1,0)	(1,0)	(1,0)	(1,0)	(1,0)	(1,0)	
L2C 58>	(1,2)	(-9,1)	(-47,1)	(-58,1)	(-10,1)	(-12,1)	(1,0)	(1,0)	(1,0)	(1,0)	(1,0)	(1,0)	(1,0)	(1,0)	(1,0)	(1,0)	
L2C 59>	(2,1)	(-7,1)	(-9,1)	(1,1)	(1,0)	(1,0)	(1,0)	(1,0)	(1,0)	(1,0)	(1,0)	(1,0)	(1,0)	(1,0)	(1,0)	(1,0)	
L2C 60>	(-26,1)	(1,1)	(1,0)	(1,0)	(1,0)	(1,0)	(1,0)	(1,0)	(1,0)	(1,0)	(1,0)	(1,0)	(1,0)	(1,0)	(1,0)	(1,0)	
L2C 61>	(-60,2)	(0,1)	(-1,1)	(1,0)	(1,0)	(1,0)	(1,0)	(1,0)	(1,0)	(1,0)	(1,0)	(1,0)	(1,0)	(1,0)	(1,0)	(1,0)	
L2C 62>	(-29,1)	(-6,1)	(-49,1)	(1,0)	(1,0)	(1,0)	(1,0)	(1,0)	(1,0)	(1,0)	(1,0)	(1,0)	(1,0)	(1,0)	(1,0)	(1,0)	
L2C 63>	(1,0)	(1,0)	(1,0)	(1,0)	(1,0)	(1,0)	(1,0)	(1,0)	(1,0)	(1,0)	(1,0)	(1,0)	(1,0)	(1,0)	(1,0)	(1,0)	

DRAM Statistics
 CHANNEL 0
 RQ ROW_BUFFER_HIT:     389103  ROW_BUFFER_MISS:     417282
 DBUS_CONGESTED:     586206
 WQ ROW_BUFFER_HIT:       4880  ROW_BUFFER_MISS:      65962  FULL:          0

 AVG_CONGESTED_CYCLE: 6
