
*** ChampSim Multicore Out-of-Order Simulator ***

Warmup Instructions: 1000000
Simulation Instructions: 10000000
Number of CPUs: 1
LLC sets: 2048
LLC ways: 16
Off-chip DRAM Size: 4096 MB Channels: 1 Width: 64-bit Data Rate: 3200 MT/s

CPU 0 runs /home/virtualcse/Data-Prefetching/ChampSim/dpc3_traces/621.wrf_s-8100B.champsimtrace.xz
Ultra pref. initializing...
Ultra pref. initialized
Ultra pref. initializing...
Ultra pref. initialized

Warmup complete CPU 0 instructions: 1000001 cycles: 379315 (Simulation time: 0 hr 0 min 2 sec) 

Heartbeat CPU 0 instructions: 10000002 cycles: 5558929 heartbeat IPC: 1.79891 cumulative IPC: 1.73758 (Simulation time: 0 hr 0 min 16 sec) 
Finished CPU 0 instructions: 10000002 cycles: 5708096 cumulative IPC: 1.7519 (Simulation time: 0 hr 0 min 17 sec) 

CPU 0 Branch Prediction Accuracy: 98.2849% MPKI: 1.7905 Average ROB Occupancy at Mispredict: 113.643

ChampSim completed all CPUs

Region of Interest Statistics

CPU 0 cumulative IPC: 1.7519 instructions: 10000002 cycles: 5708096
L1D TOTAL     ACCESS:    3305152  HIT:    3255049  MISS:      50103
L1D LOAD      ACCESS:    1554528  HIT:    1543549  MISS:      10979
L1D RFO       ACCESS:     738513  HIT:     720066  MISS:      18447
L1D PREFETCH  ACCESS:    1012111  HIT:     991434  MISS:      20677
L1D WRITEBACK ACCESS:          0  HIT:          0  MISS:          0
L1D PREFETCH  REQUESTED:   16621988  ISSUED:   13234728  USEFUL:      17944  USELESS:       3892
L1D AVERAGE MISS LATENCY: 28.2944 cycles
L1I TOTAL     ACCESS:     934564  HIT:     933289  MISS:       1275
L1I LOAD      ACCESS:     934564  HIT:     933289  MISS:       1275
L1I RFO       ACCESS:          0  HIT:          0  MISS:          0
L1I PREFETCH  ACCESS:          0  HIT:          0  MISS:          0
L1I WRITEBACK ACCESS:          0  HIT:          0  MISS:          0
L1I PREFETCH  REQUESTED:          0  ISSUED:          0  USEFUL:          0  USELESS:          0
L1I AVERAGE MISS LATENCY: 19.0831 cycles
L2C TOTAL     ACCESS:     325288  HIT:     308997  MISS:      16291
L2C LOAD      ACCESS:      11796  HIT:      11433  MISS:        363
L2C RFO       ACCESS:      18439  HIT:      11408  MISS:       7031
L2C PREFETCH  ACCESS:     271269  HIT:     262372  MISS:       8897
L2C WRITEBACK ACCESS:      23784  HIT:      23784  MISS:          0
L2C PREFETCH  REQUESTED:     534293  ISSUED:     329402  USEFUL:       6005  USELESS:       4223
L2C AVERAGE MISS LATENCY: 100.236 cycles
LLC TOTAL     ACCESS:      23023  HIT:      15186  MISS:       7837
LLC LOAD      ACCESS:        331  HIT:        162  MISS:        169
LLC RFO       ACCESS:       7030  HIT:       4914  MISS:       2116
LLC PREFETCH  ACCESS:       8930  HIT:       3378  MISS:       5552
LLC WRITEBACK ACCESS:       6732  HIT:       6732  MISS:          0
LLC PREFETCH  REQUESTED:          0  ISSUED:          0  USEFUL:       1350  USELESS:          0
LLC AVERAGE MISS LATENCY: 143.503 cycles
Major fault: 0 Minor fault: 243

L1D -512>	(1,48)	(2,19)	(0,80)	(7,6)	(8,3)	(36,12)	(35,6)	(9,1)	(-11,1)	(16,1)	(5,2)	(10,1)	(4,2)	(6,3)	(3,5)	(15,1)	
L1D -511>	(0,109)	(2,8)	(3,4)	(8,2)	(6,2)	(4,2)	(1,7)	(14,1)	(7,2)	(9,1)	(15,1)	(1,0)	(1,0)	(1,0)	(1,0)	(1,0)	
L1D -510>	(1,9)	(8,3)	(0,3)	(2,3)	(1,0)	(1,0)	(1,0)	(1,0)	(1,0)	(1,0)	(1,0)	(1,0)	(1,0)	(1,0)	(1,0)	(1,0)	
L1D -509>	(4,2)	(36,1)	(1,1)	(5,1)	(1,0)	(1,0)	(1,0)	(1,0)	(1,0)	(1,0)	(1,0)	(1,0)	(1,0)	(1,0)	(1,0)	(1,0)	
L1D -508>	(0,2)	(4,1)	(1,0)	(1,0)	(1,0)	(1,0)	(1,0)	(1,0)	(1,0)	(1,0)	(1,0)	(1,0)	(1,0)	(1,0)	(1,0)	(1,0)	
L1D -507>	(1,0)	(1,0)	(1,0)	(1,0)	(1,0)	(1,0)	(1,0)	(1,0)	(1,0)	(1,0)	(1,0)	(1,0)	(1,0)	(1,0)	(1,0)	(1,0)	
L1D -506>	(3,1)	(0,1)	(1,0)	(1,0)	(1,0)	(1,0)	(1,0)	(1,0)	(1,0)	(1,0)	(1,0)	(1,0)	(1,0)	(1,0)	(1,0)	(1,0)	
L1D -505>	(0,1)	(1,0)	(1,0)	(1,0)	(1,0)	(1,0)	(1,0)	(1,0)	(1,0)	(1,0)	(1,0)	(1,0)	(1,0)	(1,0)	(1,0)	(1,0)	
L1D -504>	(2,5)	(1,5)	(4,1)	(1,0)	(1,0)	(1,0)	(1,0)	(1,0)	(1,0)	(1,0)	(1,0)	(1,0)	(1,0)	(1,0)	(1,0)	(1,0)	
L1D -503>	(1,1)	(8,1)	(1,0)	(1,0)	(1,0)	(1,0)	(1,0)	(1,0)	(1,0)	(1,0)	(1,0)	(1,0)	(1,0)	(1,0)	(1,0)	(1,0)	
L1D -502>	(3,1)	(2,1)	(1,1)	(1,0)	(1,0)	(1,0)	(1,0)	(1,0)	(1,0)	(1,0)	(1,0)	(1,0)	(1,0)	(1,0)	(1,0)	(1,0)	
L1D -501>	(0,1)	(1,0)	(1,0)	(1,0)	(1,0)	(1,0)	(1,0)	(1,0)	(1,0)	(1,0)	(1,0)	(1,0)	(1,0)	(1,0)	(1,0)	(1,0)	
L1D -500>	(0,3)	(1,0)	(1,0)	(1,0)	(1,0)	(1,0)	(1,0)	(1,0)	(1,0)	(1,0)	(1,0)	(1,0)	(1,0)	(1,0)	(1,0)	(1,0)	
L1D -499>	(1,1)	(0,2)	(2,1)	(1,0)	(1,0)	(1,0)	(1,0)	(1,0)	(1,0)	(1,0)	(1,0)	(1,0)	(1,0)	(1,0)	(1,0)	(1,0)	
L1D -498>	(35,54)	(36,53)	(1,0)	(1,0)	(1,0)	(1,0)	(1,0)	(1,0)	(1,0)	(1,0)	(1,0)	(1,0)	(1,0)	(1,0)	(1,0)	(1,0)	
L1D -497>	(36,127)	(320,1)	(107,1)	(1,0)	(1,0)	(1,0)	(1,0)	(1,0)	(1,0)	(1,0)	(1,0)	(1,0)	(1,0)	(1,0)	(1,0)	(1,0)	
L1D -496>	(35,88)	(319,1)	(142,0)	(106,0)	(1,0)	(1,0)	(1,0)	(1,0)	(1,0)	(1,0)	(1,0)	(1,0)	(1,0)	(1,0)	(1,0)	(1,0)	
L1D -495>	(1,0)	(1,0)	(1,0)	(1,0)	(1,0)	(1,0)	(1,0)	(1,0)	(1,0)	(1,0)	(1,0)	(1,0)	(1,0)	(1,0)	(1,0)	(1,0)	
L1D -494>	(36,2)	(1,0)	(1,0)	(1,0)	(1,0)	(1,0)	(1,0)	(1,0)	(1,0)	(1,0)	(1,0)	(1,0)	(1,0)	(1,0)	(1,0)	(1,0)	
L1D -493>	(0,5)	(1,0)	(1,0)	(1,0)	(1,0)	(1,0)	(1,0)	(1,0)	(1,0)	(1,0)	(1,0)	(1,0)	(1,0)	(1,0)	(1,0)	(1,0)	
L1D -492>	(0,1)	(1,0)	(1,0)	(1,0)	(1,0)	(1,0)	(1,0)	(1,0)	(1,0)	(1,0)	(1,0)	(1,0)	(1,0)	(1,0)	(1,0)	(1,0)	
L1D -491>	(1,0)	(1,0)	(1,0)	(1,0)	(1,0)	(1,0)	(1,0)	(1,0)	(1,0)	(1,0)	(1,0)	(1,0)	(1,0)	(1,0)	(1,0)	(1,0)	
L1D -490>	(0,1)	(1,0)	(1,0)	(1,0)	(1,0)	(1,0)	(1,0)	(1,0)	(1,0)	(1,0)	(1,0)	(1,0)	(1,0)	(1,0)	(1,0)	(1,0)	
L1D -489>	(0,4)	(36,1)	(1,0)	(1,0)	(1,0)	(1,0)	(1,0)	(1,0)	(1,0)	(1,0)	(1,0)	(1,0)	(1,0)	(1,0)	(1,0)	(1,0)	
L1D -488>	(0,1)	(1,0)	(1,0)	(1,0)	(1,0)	(1,0)	(1,0)	(1,0)	(1,0)	(1,0)	(1,0)	(1,0)	(1,0)	(1,0)	(1,0)	(1,0)	
L1D -487>	(9,1)	(1,0)	(1,0)	(1,0)	(1,0)	(1,0)	(1,0)	(1,0)	(1,0)	(1,0)	(1,0)	(1,0)	(1,0)	(1,0)	(1,0)	(1,0)	
L1D -486>	(0,4)	(1,0)	(1,0)	(1,0)	(1,0)	(1,0)	(1,0)	(1,0)	(1,0)	(1,0)	(1,0)	(1,0)	(1,0)	(1,0)	(1,0)	(1,0)	
L1D -485>	(1,1)	(1,0)	(1,0)	(1,0)	(1,0)	(1,0)	(1,0)	(1,0)	(1,0)	(1,0)	(1,0)	(1,0)	(1,0)	(1,0)	(1,0)	(1,0)	
L1D -484>	(0,1)	(4,1)	(1,0)	(1,0)	(1,0)	(1,0)	(1,0)	(1,0)	(1,0)	(1,0)	(1,0)	(1,0)	(1,0)	(1,0)	(1,0)	(1,0)	
L1D -483>	(0,1)	(2,1)	(1,0)	(1,0)	(1,0)	(1,0)	(1,0)	(1,0)	(1,0)	(1,0)	(1,0)	(1,0)	(1,0)	(1,0)	(1,0)	(1,0)	
L1D -482>	(1,0)	(1,0)	(1,0)	(1,0)	(1,0)	(1,0)	(1,0)	(1,0)	(1,0)	(1,0)	(1,0)	(1,0)	(1,0)	(1,0)	(1,0)	(1,0)	
L1D -481>	(1,0)	(1,0)	(1,0)	(1,0)	(1,0)	(1,0)	(1,0)	(1,0)	(1,0)	(1,0)	(1,0)	(1,0)	(1,0)	(1,0)	(1,0)	(1,0)	
L1D -480>	(1,0)	(1,0)	(1,0)	(1,0)	(1,0)	(1,0)	(1,0)	(1,0)	(1,0)	(1,0)	(1,0)	(1,0)	(1,0)	(1,0)	(1,0)	(1,0)	
L1D -479>	(36,3)	(1,0)	(1,0)	(1,0)	(1,0)	(1,0)	(1,0)	(1,0)	(1,0)	(1,0)	(1,0)	(1,0)	(1,0)	(1,0)	(1,0)	(1,0)	
L1D -478>	(0,3)	(1,0)	(1,0)	(1,0)	(1,0)	(1,0)	(1,0)	(1,0)	(1,0)	(1,0)	(1,0)	(1,0)	(1,0)	(1,0)	(1,0)	(1,0)	
L1D -477>	(1,0)	(1,0)	(1,0)	(1,0)	(1,0)	(1,0)	(1,0)	(1,0)	(1,0)	(1,0)	(1,0)	(1,0)	(1,0)	(1,0)	(1,0)	(1,0)	
L1D -476>	(1,0)	(1,0)	(1,0)	(1,0)	(1,0)	(1,0)	(1,0)	(1,0)	(1,0)	(1,0)	(1,0)	(1,0)	(1,0)	(1,0)	(1,0)	(1,0)	
L1D -475>	(1,1)	(1,0)	(1,0)	(1,0)	(1,0)	(1,0)	(1,0)	(1,0)	(1,0)	(1,0)	(1,0)	(1,0)	(1,0)	(1,0)	(1,0)	(1,0)	
L1D -474>	(1,0)	(1,0)	(1,0)	(1,0)	(1,0)	(1,0)	(1,0)	(1,0)	(1,0)	(1,0)	(1,0)	(1,0)	(1,0)	(1,0)	(1,0)	(1,0)	
L1D -473>	(1,0)	(1,0)	(1,0)	(1,0)	(1,0)	(1,0)	(1,0)	(1,0)	(1,0)	(1,0)	(1,0)	(1,0)	(1,0)	(1,0)	(1,0)	(1,0)	
L1D -472>	(1,0)	(1,0)	(1,0)	(1,0)	(1,0)	(1,0)	(1,0)	(1,0)	(1,0)	(1,0)	(1,0)	(1,0)	(1,0)	(1,0)	(1,0)	(1,0)	
L1D -471>	(1,0)	(1,0)	(1,0)	(1,0)	(1,0)	(1,0)	(1,0)	(1,0)	(1,0)	(1,0)	(1,0)	(1,0)	(1,0)	(1,0)	(1,0)	(1,0)	
L1D -470>	(0,1)	(1,0)	(1,0)	(1,0)	(1,0)	(1,0)	(1,0)	(1,0)	(1,0)	(1,0)	(1,0)	(1,0)	(1,0)	(1,0)	(1,0)	(1,0)	
L1D -469>	(1,0)	(1,0)	(1,0)	(1,0)	(1,0)	(1,0)	(1,0)	(1,0)	(1,0)	(1,0)	(1,0)	(1,0)	(1,0)	(1,0)	(1,0)	(1,0)	
L1D -468>	(1,0)	(1,0)	(1,0)	(1,0)	(1,0)	(1,0)	(1,0)	(1,0)	(1,0)	(1,0)	(1,0)	(1,0)	(1,0)	(1,0)	(1,0)	(1,0)	
L1D -467>	(1,0)	(1,0)	(1,0)	(1,0)	(1,0)	(1,0)	(1,0)	(1,0)	(1,0)	(1,0)	(1,0)	(1,0)	(1,0)	(1,0)	(1,0)	(1,0)	
L1D -466>	(0,3)	(1,0)	(1,0)	(1,0)	(1,0)	(1,0)	(1,0)	(1,0)	(1,0)	(1,0)	(1,0)	(1,0)	(1,0)	(1,0)	(1,0)	(1,0)	
L1D -465>	(0,1)	(1,0)	(1,0)	(1,0)	(1,0)	(1,0)	(1,0)	(1,0)	(1,0)	(1,0)	(1,0)	(1,0)	(1,0)	(1,0)	(1,0)	(1,0)	
L1D -464>	(1,0)	(1,0)	(1,0)	(1,0)	(1,0)	(1,0)	(1,0)	(1,0)	(1,0)	(1,0)	(1,0)	(1,0)	(1,0)	(1,0)	(1,0)	(1,0)	
L1D -463>	(36,81)	(1,0)	(1,0)	(1,0)	(1,0)	(1,0)	(1,0)	(1,0)	(1,0)	(1,0)	(1,0)	(1,0)	(1,0)	(1,0)	(1,0)	(1,0)	
L1D -462>	(35,85)	(1,0)	(1,0)	(1,0)	(1,0)	(1,0)	(1,0)	(1,0)	(1,0)	(1,0)	(1,0)	(1,0)	(1,0)	(1,0)	(1,0)	(1,0)	
L1D -461>	(36,88)	(35,90)	(2,0)	(3,3)	(248,0)	(71,0)	(106,0)	(142,0)	(213,0)	(177,0)	(1,0)	(1,0)	(1,0)	(1,0)	(1,0)	(1,0)	
L1D -460>	(2,1)	(1,0)	(1,0)	(1,0)	(1,0)	(1,0)	(1,0)	(1,0)	(1,0)	(1,0)	(1,0)	(1,0)	(1,0)	(1,0)	(1,0)	(1,0)	
L1D -459>	(0,1)	(1,0)	(1,0)	(1,0)	(1,0)	(1,0)	(1,0)	(1,0)	(1,0)	(1,0)	(1,0)	(1,0)	(1,0)	(1,0)	(1,0)	(1,0)	
L1D -458>	(1,0)	(1,0)	(1,0)	(1,0)	(1,0)	(1,0)	(1,0)	(1,0)	(1,0)	(1,0)	(1,0)	(1,0)	(1,0)	(1,0)	(1,0)	(1,0)	
L1D -457>	(1,0)	(1,0)	(1,0)	(1,0)	(1,0)	(1,0)	(1,0)	(1,0)	(1,0)	(1,0)	(1,0)	(1,0)	(1,0)	(1,0)	(1,0)	(1,0)	
L1D -456>	(1,0)	(1,0)	(1,0)	(1,0)	(1,0)	(1,0)	(1,0)	(1,0)	(1,0)	(1,0)	(1,0)	(1,0)	(1,0)	(1,0)	(1,0)	(1,0)	
L1D -455>	(1,0)	(1,0)	(1,0)	(1,0)	(1,0)	(1,0)	(1,0)	(1,0)	(1,0)	(1,0)	(1,0)	(1,0)	(1,0)	(1,0)	(1,0)	(1,0)	
L1D -454>	(1,0)	(1,0)	(1,0)	(1,0)	(1,0)	(1,0)	(1,0)	(1,0)	(1,0)	(1,0)	(1,0)	(1,0)	(1,0)	(1,0)	(1,0)	(1,0)	
L1D -453>	(1,0)	(1,0)	(1,0)	(1,0)	(1,0)	(1,0)	(1,0)	(1,0)	(1,0)	(1,0)	(1,0)	(1,0)	(1,0)	(1,0)	(1,0)	(1,0)	
L1D -452>	(1,0)	(1,0)	(1,0)	(1,0)	(1,0)	(1,0)	(1,0)	(1,0)	(1,0)	(1,0)	(1,0)	(1,0)	(1,0)	(1,0)	(1,0)	(1,0)	
L1D -451>	(1,0)	(1,0)	(1,0)	(1,0)	(1,0)	(1,0)	(1,0)	(1,0)	(1,0)	(1,0)	(1,0)	(1,0)	(1,0)	(1,0)	(1,0)	(1,0)	
L1D -450>	(1,0)	(1,0)	(1,0)	(1,0)	(1,0)	(1,0)	(1,0)	(1,0)	(1,0)	(1,0)	(1,0)	(1,0)	(1,0)	(1,0)	(1,0)	(1,0)	
L1D -449>	(0,1)	(1,0)	(1,0)	(1,0)	(1,0)	(1,0)	(1,0)	(1,0)	(1,0)	(1,0)	(1,0)	(1,0)	(1,0)	(1,0)	(1,0)	(1,0)	
L1D -448>	(8,1)	(1,0)	(1,0)	(1,0)	(1,0)	(1,0)	(1,0)	(1,0)	(1,0)	(1,0)	(1,0)	(1,0)	(1,0)	(1,0)	(1,0)	(1,0)	
L1D -447>	(1,0)	(1,0)	(1,0)	(1,0)	(1,0)	(1,0)	(1,0)	(1,0)	(1,0)	(1,0)	(1,0)	(1,0)	(1,0)	(1,0)	(1,0)	(1,0)	
L1D -446>	(1,0)	(1,0)	(1,0)	(1,0)	(1,0)	(1,0)	(1,0)	(1,0)	(1,0)	(1,0)	(1,0)	(1,0)	(1,0)	(1,0)	(1,0)	(1,0)	
L1D -445>	(1,0)	(1,0)	(1,0)	(1,0)	(1,0)	(1,0)	(1,0)	(1,0)	(1,0)	(1,0)	(1,0)	(1,0)	(1,0)	(1,0)	(1,0)	(1,0)	
L1D -444>	(1,0)	(1,0)	(1,0)	(1,0)	(1,0)	(1,0)	(1,0)	(1,0)	(1,0)	(1,0)	(1,0)	(1,0)	(1,0)	(1,0)	(1,0)	(1,0)	
L1D -443>	(0,14)	(2,2)	(35,2)	(1,0)	(1,0)	(1,0)	(1,0)	(1,0)	(1,0)	(1,0)	(1,0)	(1,0)	(1,0)	(1,0)	(1,0)	(1,0)	
L1D -442>	(0,2)	(2,1)	(1,0)	(1,0)	(1,0)	(1,0)	(1,0)	(1,0)	(1,0)	(1,0)	(1,0)	(1,0)	(1,0)	(1,0)	(1,0)	(1,0)	
L1D -441>	(1,0)	(1,0)	(1,0)	(1,0)	(1,0)	(1,0)	(1,0)	(1,0)	(1,0)	(1,0)	(1,0)	(1,0)	(1,0)	(1,0)	(1,0)	(1,0)	
L1D -440>	(2,1)	(1,0)	(1,0)	(1,0)	(1,0)	(1,0)	(1,0)	(1,0)	(1,0)	(1,0)	(1,0)	(1,0)	(1,0)	(1,0)	(1,0)	(1,0)	
L1D -439>	(1,0)	(1,0)	(1,0)	(1,0)	(1,0)	(1,0)	(1,0)	(1,0)	(1,0)	(1,0)	(1,0)	(1,0)	(1,0)	(1,0)	(1,0)	(1,0)	
L1D -438>	(1,0)	(1,0)	(1,0)	(1,0)	(1,0)	(1,0)	(1,0)	(1,0)	(1,0)	(1,0)	(1,0)	(1,0)	(1,0)	(1,0)	(1,0)	(1,0)	
L1D -437>	(1,0)	(1,0)	(1,0)	(1,0)	(1,0)	(1,0)	(1,0)	(1,0)	(1,0)	(1,0)	(1,0)	(1,0)	(1,0)	(1,0)	(1,0)	(1,0)	
L1D -436>	(1,0)	(1,0)	(1,0)	(1,0)	(1,0)	(1,0)	(1,0)	(1,0)	(1,0)	(1,0)	(1,0)	(1,0)	(1,0)	(1,0)	(1,0)	(1,0)	
L1D -435>	(1,0)	(1,0)	(1,0)	(1,0)	(1,0)	(1,0)	(1,0)	(1,0)	(1,0)	(1,0)	(1,0)	(1,0)	(1,0)	(1,0)	(1,0)	(1,0)	
L1D -434>	(1,0)	(1,0)	(1,0)	(1,0)	(1,0)	(1,0)	(1,0)	(1,0)	(1,0)	(1,0)	(1,0)	(1,0)	(1,0)	(1,0)	(1,0)	(1,0)	
L1D -433>	(1,0)	(1,0)	(1,0)	(1,0)	(1,0)	(1,0)	(1,0)	(1,0)	(1,0)	(1,0)	(1,0)	(1,0)	(1,0)	(1,0)	(1,0)	(1,0)	
L1D -432>	(1,0)	(1,0)	(1,0)	(1,0)	(1,0)	(1,0)	(1,0)	(1,0)	(1,0)	(1,0)	(1,0)	(1,0)	(1,0)	(1,0)	(1,0)	(1,0)	
L1D -431>	(1,0)	(1,0)	(1,0)	(1,0)	(1,0)	(1,0)	(1,0)	(1,0)	(1,0)	(1,0)	(1,0)	(1,0)	(1,0)	(1,0)	(1,0)	(1,0)	
L1D -430>	(1,0)	(1,0)	(1,0)	(1,0)	(1,0)	(1,0)	(1,0)	(1,0)	(1,0)	(1,0)	(1,0)	(1,0)	(1,0)	(1,0)	(1,0)	(1,0)	
L1D -429>	(1,0)	(1,0)	(1,0)	(1,0)	(1,0)	(1,0)	(1,0)	(1,0)	(1,0)	(1,0)	(1,0)	(1,0)	(1,0)	(1,0)	(1,0)	(1,0)	
L1D -428>	(1,0)	(1,0)	(1,0)	(1,0)	(1,0)	(1,0)	(1,0)	(1,0)	(1,0)	(1,0)	(1,0)	(1,0)	(1,0)	(1,0)	(1,0)	(1,0)	
L1D -427>	(1,0)	(1,0)	(1,0)	(1,0)	(1,0)	(1,0)	(1,0)	(1,0)	(1,0)	(1,0)	(1,0)	(1,0)	(1,0)	(1,0)	(1,0)	(1,0)	
L1D -426>	(0,3)	(36,120)	(1,0)	(1,0)	(1,0)	(1,0)	(1,0)	(1,0)	(1,0)	(1,0)	(1,0)	(1,0)	(1,0)	(1,0)	(1,0)	(1,0)	
L1D -425>	(0,5)	(35,120)	(1,0)	(1,0)	(1,0)	(1,0)	(1,0)	(1,0)	(1,0)	(1,0)	(1,0)	(1,0)	(1,0)	(1,0)	(1,0)	(1,0)	
L1D -424>	(0,1)	(1,0)	(1,0)	(1,0)	(1,0)	(1,0)	(1,0)	(1,0)	(1,0)	(1,0)	(1,0)	(1,0)	(1,0)	(1,0)	(1,0)	(1,0)	
L1D -423>	(1,0)	(1,0)	(1,0)	(1,0)	(1,0)	(1,0)	(1,0)	(1,0)	(1,0)	(1,0)	(1,0)	(1,0)	(1,0)	(1,0)	(1,0)	(1,0)	
L1D -422>	(1,0)	(1,0)	(1,0)	(1,0)	(1,0)	(1,0)	(1,0)	(1,0)	(1,0)	(1,0)	(1,0)	(1,0)	(1,0)	(1,0)	(1,0)	(1,0)	
L1D -421>	(1,0)	(1,0)	(1,0)	(1,0)	(1,0)	(1,0)	(1,0)	(1,0)	(1,0)	(1,0)	(1,0)	(1,0)	(1,0)	(1,0)	(1,0)	(1,0)	
L1D -420>	(1,0)	(1,0)	(1,0)	(1,0)	(1,0)	(1,0)	(1,0)	(1,0)	(1,0)	(1,0)	(1,0)	(1,0)	(1,0)	(1,0)	(1,0)	(1,0)	
L1D -419>	(1,0)	(1,0)	(1,0)	(1,0)	(1,0)	(1,0)	(1,0)	(1,0)	(1,0)	(1,0)	(1,0)	(1,0)	(1,0)	(1,0)	(1,0)	(1,0)	
L1D -418>	(1,0)	(1,0)	(1,0)	(1,0)	(1,0)	(1,0)	(1,0)	(1,0)	(1,0)	(1,0)	(1,0)	(1,0)	(1,0)	(1,0)	(1,0)	(1,0)	
L1D -417>	(1,0)	(1,0)	(1,0)	(1,0)	(1,0)	(1,0)	(1,0)	(1,0)	(1,0)	(1,0)	(1,0)	(1,0)	(1,0)	(1,0)	(1,0)	(1,0)	
L1D -416>	(0,1)	(1,0)	(1,0)	(1,0)	(1,0)	(1,0)	(1,0)	(1,0)	(1,0)	(1,0)	(1,0)	(1,0)	(1,0)	(1,0)	(1,0)	(1,0)	
L1D -415>	(0,1)	(1,0)	(1,0)	(1,0)	(1,0)	(1,0)	(1,0)	(1,0)	(1,0)	(1,0)	(1,0)	(1,0)	(1,0)	(1,0)	(1,0)	(1,0)	
L1D -414>	(1,0)	(1,0)	(1,0)	(1,0)	(1,0)	(1,0)	(1,0)	(1,0)	(1,0)	(1,0)	(1,0)	(1,0)	(1,0)	(1,0)	(1,0)	(1,0)	
L1D -413>	(1,0)	(1,0)	(1,0)	(1,0)	(1,0)	(1,0)	(1,0)	(1,0)	(1,0)	(1,0)	(1,0)	(1,0)	(1,0)	(1,0)	(1,0)	(1,0)	
L1D -412>	(1,0)	(1,0)	(1,0)	(1,0)	(1,0)	(1,0)	(1,0)	(1,0)	(1,0)	(1,0)	(1,0)	(1,0)	(1,0)	(1,0)	(1,0)	(1,0)	
L1D -411>	(1,0)	(1,0)	(1,0)	(1,0)	(1,0)	(1,0)	(1,0)	(1,0)	(1,0)	(1,0)	(1,0)	(1,0)	(1,0)	(1,0)	(1,0)	(1,0)	
L1D -410>	(1,0)	(1,0)	(1,0)	(1,0)	(1,0)	(1,0)	(1,0)	(1,0)	(1,0)	(1,0)	(1,0)	(1,0)	(1,0)	(1,0)	(1,0)	(1,0)	
L1D -409>	(1,0)	(1,0)	(1,0)	(1,0)	(1,0)	(1,0)	(1,0)	(1,0)	(1,0)	(1,0)	(1,0)	(1,0)	(1,0)	(1,0)	(1,0)	(1,0)	
L1D -408>	(1,0)	(1,0)	(1,0)	(1,0)	(1,0)	(1,0)	(1,0)	(1,0)	(1,0)	(1,0)	(1,0)	(1,0)	(1,0)	(1,0)	(1,0)	(1,0)	
L1D -407>	(0,3)	(1,0)	(1,0)	(1,0)	(1,0)	(1,0)	(1,0)	(1,0)	(1,0)	(1,0)	(1,0)	(1,0)	(1,0)	(1,0)	(1,0)	(1,0)	
L1D -406>	(0,2)	(1,0)	(1,0)	(1,0)	(1,0)	(1,0)	(1,0)	(1,0)	(1,0)	(1,0)	(1,0)	(1,0)	(1,0)	(1,0)	(1,0)	(1,0)	
L1D -405>	(0,1)	(1,0)	(1,0)	(1,0)	(1,0)	(1,0)	(1,0)	(1,0)	(1,0)	(1,0)	(1,0)	(1,0)	(1,0)	(1,0)	(1,0)	(1,0)	
L1D -404>	(1,0)	(1,0)	(1,0)	(1,0)	(1,0)	(1,0)	(1,0)	(1,0)	(1,0)	(1,0)	(1,0)	(1,0)	(1,0)	(1,0)	(1,0)	(1,0)	
L1D -403>	(1,0)	(1,0)	(1,0)	(1,0)	(1,0)	(1,0)	(1,0)	(1,0)	(1,0)	(1,0)	(1,0)	(1,0)	(1,0)	(1,0)	(1,0)	(1,0)	
L1D -402>	(1,0)	(1,0)	(1,0)	(1,0)	(1,0)	(1,0)	(1,0)	(1,0)	(1,0)	(1,0)	(1,0)	(1,0)	(1,0)	(1,0)	(1,0)	(1,0)	
L1D -401>	(1,0)	(1,0)	(1,0)	(1,0)	(1,0)	(1,0)	(1,0)	(1,0)	(1,0)	(1,0)	(1,0)	(1,0)	(1,0)	(1,0)	(1,0)	(1,0)	
L1D -400>	(1,0)	(1,0)	(1,0)	(1,0)	(1,0)	(1,0)	(1,0)	(1,0)	(1,0)	(1,0)	(1,0)	(1,0)	(1,0)	(1,0)	(1,0)	(1,0)	
L1D -399>	(1,0)	(1,0)	(1,0)	(1,0)	(1,0)	(1,0)	(1,0)	(1,0)	(1,0)	(1,0)	(1,0)	(1,0)	(1,0)	(1,0)	(1,0)	(1,0)	
L1D -398>	(1,0)	(1,0)	(1,0)	(1,0)	(1,0)	(1,0)	(1,0)	(1,0)	(1,0)	(1,0)	(1,0)	(1,0)	(1,0)	(1,0)	(1,0)	(1,0)	
L1D -397>	(1,0)	(1,0)	(1,0)	(1,0)	(1,0)	(1,0)	(1,0)	(1,0)	(1,0)	(1,0)	(1,0)	(1,0)	(1,0)	(1,0)	(1,0)	(1,0)	
L1D -396>	(0,1)	(1,0)	(1,0)	(1,0)	(1,0)	(1,0)	(1,0)	(1,0)	(1,0)	(1,0)	(1,0)	(1,0)	(1,0)	(1,0)	(1,0)	(1,0)	
L1D -395>	(1,1)	(1,0)	(1,0)	(1,0)	(1,0)	(1,0)	(1,0)	(1,0)	(1,0)	(1,0)	(1,0)	(1,0)	(1,0)	(1,0)	(1,0)	(1,0)	
L1D -394>	(1,0)	(1,0)	(1,0)	(1,0)	(1,0)	(1,0)	(1,0)	(1,0)	(1,0)	(1,0)	(1,0)	(1,0)	(1,0)	(1,0)	(1,0)	(1,0)	
L1D -393>	(1,0)	(1,0)	(1,0)	(1,0)	(1,0)	(1,0)	(1,0)	(1,0)	(1,0)	(1,0)	(1,0)	(1,0)	(1,0)	(1,0)	(1,0)	(1,0)	
L1D -392>	(0,1)	(1,0)	(1,0)	(1,0)	(1,0)	(1,0)	(1,0)	(1,0)	(1,0)	(1,0)	(1,0)	(1,0)	(1,0)	(1,0)	(1,0)	(1,0)	
L1D -391>	(1,0)	(1,0)	(1,0)	(1,0)	(1,0)	(1,0)	(1,0)	(1,0)	(1,0)	(1,0)	(1,0)	(1,0)	(1,0)	(1,0)	(1,0)	(1,0)	
L1D -390>	(35,72)	(36,72)	(1,0)	(1,0)	(1,0)	(1,0)	(1,0)	(1,0)	(1,0)	(1,0)	(1,0)	(1,0)	(1,0)	(1,0)	(1,0)	(1,0)	
L1D -389>	(1,0)	(1,0)	(1,0)	(1,0)	(1,0)	(1,0)	(1,0)	(1,0)	(1,0)	(1,0)	(1,0)	(1,0)	(1,0)	(1,0)	(1,0)	(1,0)	
L1D -388>	(0,1)	(1,0)	(1,0)	(1,0)	(1,0)	(1,0)	(1,0)	(1,0)	(1,0)	(1,0)	(1,0)	(1,0)	(1,0)	(1,0)	(1,0)	(1,0)	
L1D -387>	(0,1)	(1,0)	(1,0)	(1,0)	(1,0)	(1,0)	(1,0)	(1,0)	(1,0)	(1,0)	(1,0)	(1,0)	(1,0)	(1,0)	(1,0)	(1,0)	
L1D -386>	(1,0)	(1,0)	(1,0)	(1,0)	(1,0)	(1,0)	(1,0)	(1,0)	(1,0)	(1,0)	(1,0)	(1,0)	(1,0)	(1,0)	(1,0)	(1,0)	
L1D -385>	(0,3)	(1,0)	(1,0)	(1,0)	(1,0)	(1,0)	(1,0)	(1,0)	(1,0)	(1,0)	(1,0)	(1,0)	(1,0)	(1,0)	(1,0)	(1,0)	
L1D -384>	(1,0)	(1,0)	(1,0)	(1,0)	(1,0)	(1,0)	(1,0)	(1,0)	(1,0)	(1,0)	(1,0)	(1,0)	(1,0)	(1,0)	(1,0)	(1,0)	
L1D -383>	(1,0)	(1,0)	(1,0)	(1,0)	(1,0)	(1,0)	(1,0)	(1,0)	(1,0)	(1,0)	(1,0)	(1,0)	(1,0)	(1,0)	(1,0)	(1,0)	
L1D -382>	(305,2)	(292,2)	(291,2)	(1,0)	(1,0)	(1,0)	(1,0)	(1,0)	(1,0)	(1,0)	(1,0)	(1,0)	(1,0)	(1,0)	(1,0)	(1,0)	
L1D -381>	(304,2)	(0,63)	(381,2)	(1,0)	(1,0)	(1,0)	(1,0)	(1,0)	(1,0)	(1,0)	(1,0)	(1,0)	(1,0)	(1,0)	(1,0)	(1,0)	
L1D -380>	(303,1)	(290,1)	(1,0)	(1,0)	(1,0)	(1,0)	(1,0)	(1,0)	(1,0)	(1,0)	(1,0)	(1,0)	(1,0)	(1,0)	(1,0)	(1,0)	
L1D -379>	(1,0)	(1,0)	(1,0)	(1,0)	(1,0)	(1,0)	(1,0)	(1,0)	(1,0)	(1,0)	(1,0)	(1,0)	(1,0)	(1,0)	(1,0)	(1,0)	
L1D -378>	(1,0)	(1,0)	(1,0)	(1,0)	(1,0)	(1,0)	(1,0)	(1,0)	(1,0)	(1,0)	(1,0)	(1,0)	(1,0)	(1,0)	(1,0)	(1,0)	
L1D -377>	(1,0)	(1,0)	(1,0)	(1,0)	(1,0)	(1,0)	(1,0)	(1,0)	(1,0)	(1,0)	(1,0)	(1,0)	(1,0)	(1,0)	(1,0)	(1,0)	
L1D -376>	(1,0)	(1,0)	(1,0)	(1,0)	(1,0)	(1,0)	(1,0)	(1,0)	(1,0)	(1,0)	(1,0)	(1,0)	(1,0)	(1,0)	(1,0)	(1,0)	
L1D -375>	(1,0)	(1,0)	(1,0)	(1,0)	(1,0)	(1,0)	(1,0)	(1,0)	(1,0)	(1,0)	(1,0)	(1,0)	(1,0)	(1,0)	(1,0)	(1,0)	
L1D -374>	(1,0)	(1,0)	(1,0)	(1,0)	(1,0)	(1,0)	(1,0)	(1,0)	(1,0)	(1,0)	(1,0)	(1,0)	(1,0)	(1,0)	(1,0)	(1,0)	
L1D -373>	(1,0)	(1,0)	(1,0)	(1,0)	(1,0)	(1,0)	(1,0)	(1,0)	(1,0)	(1,0)	(1,0)	(1,0)	(1,0)	(1,0)	(1,0)	(1,0)	
L1D -372>	(1,0)	(1,0)	(1,0)	(1,0)	(1,0)	(1,0)	(1,0)	(1,0)	(1,0)	(1,0)	(1,0)	(1,0)	(1,0)	(1,0)	(1,0)	(1,0)	
L1D -371>	(1,0)	(1,0)	(1,0)	(1,0)	(1,0)	(1,0)	(1,0)	(1,0)	(1,0)	(1,0)	(1,0)	(1,0)	(1,0)	(1,0)	(1,0)	(1,0)	
L1D -370>	(292,2)	(0,2)	(1,0)	(1,0)	(1,0)	(1,0)	(1,0)	(1,0)	(1,0)	(1,0)	(1,0)	(1,0)	(1,0)	(1,0)	(1,0)	(1,0)	
L1D -369>	(291,1)	(1,0)	(1,0)	(1,0)	(1,0)	(1,0)	(1,0)	(1,0)	(1,0)	(1,0)	(1,0)	(1,0)	(1,0)	(1,0)	(1,0)	(1,0)	
L1D -368>	(1,0)	(1,0)	(1,0)	(1,0)	(1,0)	(1,0)	(1,0)	(1,0)	(1,0)	(1,0)	(1,0)	(1,0)	(1,0)	(1,0)	(1,0)	(1,0)	
L1D -367>	(1,0)	(1,0)	(1,0)	(1,0)	(1,0)	(1,0)	(1,0)	(1,0)	(1,0)	(1,0)	(1,0)	(1,0)	(1,0)	(1,0)	(1,0)	(1,0)	
L1D -366>	(1,0)	(1,0)	(1,0)	(1,0)	(1,0)	(1,0)	(1,0)	(1,0)	(1,0)	(1,0)	(1,0)	(1,0)	(1,0)	(1,0)	(1,0)	(1,0)	
L1D -365>	(1,0)	(1,0)	(1,0)	(1,0)	(1,0)	(1,0)	(1,0)	(1,0)	(1,0)	(1,0)	(1,0)	(1,0)	(1,0)	(1,0)	(1,0)	(1,0)	
L1D -364>	(1,0)	(1,0)	(1,0)	(1,0)	(1,0)	(1,0)	(1,0)	(1,0)	(1,0)	(1,0)	(1,0)	(1,0)	(1,0)	(1,0)	(1,0)	(1,0)	
L1D -363>	(1,0)	(1,0)	(1,0)	(1,0)	(1,0)	(1,0)	(1,0)	(1,0)	(1,0)	(1,0)	(1,0)	(1,0)	(1,0)	(1,0)	(1,0)	(1,0)	
L1D -362>	(1,0)	(1,0)	(1,0)	(1,0)	(1,0)	(1,0)	(1,0)	(1,0)	(1,0)	(1,0)	(1,0)	(1,0)	(1,0)	(1,0)	(1,0)	(1,0)	
L1D -361>	(1,0)	(1,0)	(1,0)	(1,0)	(1,0)	(1,0)	(1,0)	(1,0)	(1,0)	(1,0)	(1,0)	(1,0)	(1,0)	(1,0)	(1,0)	(1,0)	
L1D -360>	(1,0)	(1,0)	(1,0)	(1,0)	(1,0)	(1,0)	(1,0)	(1,0)	(1,0)	(1,0)	(1,0)	(1,0)	(1,0)	(1,0)	(1,0)	(1,0)	
L1D -359>	(0,1)	(1,0)	(1,0)	(1,0)	(1,0)	(1,0)	(1,0)	(1,0)	(1,0)	(1,0)	(1,0)	(1,0)	(1,0)	(1,0)	(1,0)	(1,0)	
L1D -358>	(1,0)	(1,0)	(1,0)	(1,0)	(1,0)	(1,0)	(1,0)	(1,0)	(1,0)	(1,0)	(1,0)	(1,0)	(1,0)	(1,0)	(1,0)	(1,0)	
L1D -357>	(1,1)	(1,0)	(1,0)	(1,0)	(1,0)	(1,0)	(1,0)	(1,0)	(1,0)	(1,0)	(1,0)	(1,0)	(1,0)	(1,0)	(1,0)	(1,0)	
L1D -356>	(0,1)	(1,0)	(1,0)	(1,0)	(1,0)	(1,0)	(1,0)	(1,0)	(1,0)	(1,0)	(1,0)	(1,0)	(1,0)	(1,0)	(1,0)	(1,0)	
L1D -355>	(36,39)	(1,0)	(1,0)	(1,0)	(1,0)	(1,0)	(1,0)	(1,0)	(1,0)	(1,0)	(1,0)	(1,0)	(1,0)	(1,0)	(1,0)	(1,0)	
L1D -354>	(35,40)	(2,1)	(0,3)	(1,1)	(1,0)	(1,0)	(1,0)	(1,0)	(1,0)	(1,0)	(1,0)	(1,0)	(1,0)	(1,0)	(1,0)	(1,0)	
L1D -353>	(0,4)	(1,2)	(1,0)	(1,0)	(1,0)	(1,0)	(1,0)	(1,0)	(1,0)	(1,0)	(1,0)	(1,0)	(1,0)	(1,0)	(1,0)	(1,0)	
L1D -352>	(1,0)	(1,0)	(1,0)	(1,0)	(1,0)	(1,0)	(1,0)	(1,0)	(1,0)	(1,0)	(1,0)	(1,0)	(1,0)	(1,0)	(1,0)	(1,0)	
L1D -351>	(1,0)	(1,0)	(1,0)	(1,0)	(1,0)	(1,0)	(1,0)	(1,0)	(1,0)	(1,0)	(1,0)	(1,0)	(1,0)	(1,0)	(1,0)	(1,0)	
L1D -350>	(0,2)	(1,0)	(1,0)	(1,0)	(1,0)	(1,0)	(1,0)	(1,0)	(1,0)	(1,0)	(1,0)	(1,0)	(1,0)	(1,0)	(1,0)	(1,0)	
L1D -349>	(1,0)	(1,0)	(1,0)	(1,0)	(1,0)	(1,0)	(1,0)	(1,0)	(1,0)	(1,0)	(1,0)	(1,0)	(1,0)	(1,0)	(1,0)	(1,0)	
L1D -348>	(1,1)	(1,0)	(1,0)	(1,0)	(1,0)	(1,0)	(1,0)	(1,0)	(1,0)	(1,0)	(1,0)	(1,0)	(1,0)	(1,0)	(1,0)	(1,0)	
L1D -347>	(1,0)	(1,0)	(1,0)	(1,0)	(1,0)	(1,0)	(1,0)	(1,0)	(1,0)	(1,0)	(1,0)	(1,0)	(1,0)	(1,0)	(1,0)	(1,0)	
L1D -346>	(7,1)	(2,1)	(1,0)	(1,0)	(1,0)	(1,0)	(1,0)	(1,0)	(1,0)	(1,0)	(1,0)	(1,0)	(1,0)	(1,0)	(1,0)	(1,0)	
L1D -345>	(1,0)	(1,0)	(1,0)	(1,0)	(1,0)	(1,0)	(1,0)	(1,0)	(1,0)	(1,0)	(1,0)	(1,0)	(1,0)	(1,0)	(1,0)	(1,0)	
L1D -344>	(0,1)	(209,1)	(1,0)	(1,0)	(1,0)	(1,0)	(1,0)	(1,0)	(1,0)	(1,0)	(1,0)	(1,0)	(1,0)	(1,0)	(1,0)	(1,0)	
L1D -343>	(1,0)	(1,0)	(1,0)	(1,0)	(1,0)	(1,0)	(1,0)	(1,0)	(1,0)	(1,0)	(1,0)	(1,0)	(1,0)	(1,0)	(1,0)	(1,0)	
L1D -342>	(38,1)	(1,0)	(1,0)	(1,0)	(1,0)	(1,0)	(1,0)	(1,0)	(1,0)	(1,0)	(1,0)	(1,0)	(1,0)	(1,0)	(1,0)	(1,0)	
L1D -341>	(8,3)	(1,15)	(12,5)	(0,3)	(302,1)	(296,2)	(1,0)	(1,0)	(1,0)	(1,0)	(1,0)	(1,0)	(1,0)	(1,0)	(1,0)	(1,0)	
L1D -340>	(4,5)	(8,67)	(12,9)	(1,6)	(0,6)	(296,8)	(1,0)	(1,0)	(1,0)	(1,0)	(1,0)	(1,0)	(1,0)	(1,0)	(1,0)	(1,0)	
L1D -339>	(0,2)	(1,0)	(1,0)	(1,0)	(1,0)	(1,0)	(1,0)	(1,0)	(1,0)	(1,0)	(1,0)	(1,0)	(1,0)	(1,0)	(1,0)	(1,0)	
L1D -338>	(0,4)	(16,1)	(1,0)	(1,0)	(1,0)	(1,0)	(1,0)	(1,0)	(1,0)	(1,0)	(1,0)	(1,0)	(1,0)	(1,0)	(1,0)	(1,0)	
L1D -337>	(1,1)	(1,0)	(1,0)	(1,0)	(1,0)	(1,0)	(1,0)	(1,0)	(1,0)	(1,0)	(1,0)	(1,0)	(1,0)	(1,0)	(1,0)	(1,0)	
L1D -336>	(4,4)	(1,0)	(1,0)	(1,0)	(1,0)	(1,0)	(1,0)	(1,0)	(1,0)	(1,0)	(1,0)	(1,0)	(1,0)	(1,0)	(1,0)	(1,0)	
L1D -335>	(0,1)	(1,0)	(1,0)	(1,0)	(1,0)	(1,0)	(1,0)	(1,0)	(1,0)	(1,0)	(1,0)	(1,0)	(1,0)	(1,0)	(1,0)	(1,0)	
L1D -334>	(1,0)	(1,0)	(1,0)	(1,0)	(1,0)	(1,0)	(1,0)	(1,0)	(1,0)	(1,0)	(1,0)	(1,0)	(1,0)	(1,0)	(1,0)	(1,0)	
L1D -333>	(-8,0)	(333,107)	(1,4)	(0,1)	(1,0)	(1,0)	(1,0)	(1,0)	(1,0)	(1,0)	(1,0)	(1,0)	(1,0)	(1,0)	(1,0)	(1,0)	
L1D -332>	(1,0)	(332,75)	(0,1)	(333,5)	(1,0)	(1,0)	(1,0)	(1,0)	(1,0)	(1,0)	(1,0)	(1,0)	(1,0)	(1,0)	(1,0)	(1,0)	
L1D -331>	(0,43)	(332,125)	(331,32)	(1,4)	(1,0)	(1,0)	(1,0)	(1,0)	(1,0)	(1,0)	(1,0)	(1,0)	(1,0)	(1,0)	(1,0)	(1,0)	
L1D -330>	(1,1)	(1,0)	(1,0)	(1,0)	(1,0)	(1,0)	(1,0)	(1,0)	(1,0)	(1,0)	(1,0)	(1,0)	(1,0)	(1,0)	(1,0)	(1,0)	
L1D -329>	(-48,15)	(1,0)	(1,0)	(1,0)	(1,0)	(1,0)	(1,0)	(1,0)	(1,0)	(1,0)	(1,0)	(1,0)	(1,0)	(1,0)	(1,0)	(1,0)	
L1D -328>	(-48,2)	(2,1)	(1,0)	(1,0)	(1,0)	(1,0)	(1,0)	(1,0)	(1,0)	(1,0)	(1,0)	(1,0)	(1,0)	(1,0)	(1,0)	(1,0)	
L1D -327>	(1,0)	(1,0)	(1,0)	(1,0)	(1,0)	(1,0)	(1,0)	(1,0)	(1,0)	(1,0)	(1,0)	(1,0)	(1,0)	(1,0)	(1,0)	(1,0)	
L1D -326>	(1,0)	(1,0)	(1,0)	(1,0)	(1,0)	(1,0)	(1,0)	(1,0)	(1,0)	(1,0)	(1,0)	(1,0)	(1,0)	(1,0)	(1,0)	(1,0)	
L1D -325>	(1,0)	(1,0)	(1,0)	(1,0)	(1,0)	(1,0)	(1,0)	(1,0)	(1,0)	(1,0)	(1,0)	(1,0)	(1,0)	(1,0)	(1,0)	(1,0)	
L1D -324>	(-1,2)	(-48,1)	(1,0)	(1,0)	(1,0)	(1,0)	(1,0)	(1,0)	(1,0)	(1,0)	(1,0)	(1,0)	(1,0)	(1,0)	(1,0)	(1,0)	
L1D -323>	(1,0)	(1,0)	(1,0)	(1,0)	(1,0)	(1,0)	(1,0)	(1,0)	(1,0)	(1,0)	(1,0)	(1,0)	(1,0)	(1,0)	(1,0)	(1,0)	
L1D -322>	(1,0)	(1,0)	(1,0)	(1,0)	(1,0)	(1,0)	(1,0)	(1,0)	(1,0)	(1,0)	(1,0)	(1,0)	(1,0)	(1,0)	(1,0)	(1,0)	
L1D -321>	(1,0)	(1,0)	(1,0)	(1,0)	(1,0)	(1,0)	(1,0)	(1,0)	(1,0)	(1,0)	(1,0)	(1,0)	(1,0)	(1,0)	(1,0)	(1,0)	
L1D -320>	(35,1)	(1,0)	(1,0)	(1,0)	(1,0)	(1,0)	(1,0)	(1,0)	(1,0)	(1,0)	(1,0)	(1,0)	(1,0)	(1,0)	(1,0)	(1,0)	
L1D -319>	(36,42)	(35,41)	(1,0)	(1,0)	(1,0)	(1,0)	(1,0)	(1,0)	(1,0)	(1,0)	(1,0)	(1,0)	(1,0)	(1,0)	(1,0)	(1,0)	
L1D -318>	(1,0)	(1,0)	(1,0)	(1,0)	(1,0)	(1,0)	(1,0)	(1,0)	(1,0)	(1,0)	(1,0)	(1,0)	(1,0)	(1,0)	(1,0)	(1,0)	
L1D -317>	(1,0)	(1,0)	(1,0)	(1,0)	(1,0)	(1,0)	(1,0)	(1,0)	(1,0)	(1,0)	(1,0)	(1,0)	(1,0)	(1,0)	(1,0)	(1,0)	
L1D -316>	(1,0)	(1,0)	(1,0)	(1,0)	(1,0)	(1,0)	(1,0)	(1,0)	(1,0)	(1,0)	(1,0)	(1,0)	(1,0)	(1,0)	(1,0)	(1,0)	
L1D -315>	(1,1)	(1,0)	(1,0)	(1,0)	(1,0)	(1,0)	(1,0)	(1,0)	(1,0)	(1,0)	(1,0)	(1,0)	(1,0)	(1,0)	(1,0)	(1,0)	
L1D -314>	(0,2)	(1,0)	(1,0)	(1,0)	(1,0)	(1,0)	(1,0)	(1,0)	(1,0)	(1,0)	(1,0)	(1,0)	(1,0)	(1,0)	(1,0)	(1,0)	
L1D -313>	(1,0)	(1,0)	(1,0)	(1,0)	(1,0)	(1,0)	(1,0)	(1,0)	(1,0)	(1,0)	(1,0)	(1,0)	(1,0)	(1,0)	(1,0)	(1,0)	
L1D -312>	(0,1)	(1,0)	(1,0)	(1,0)	(1,0)	(1,0)	(1,0)	(1,0)	(1,0)	(1,0)	(1,0)	(1,0)	(1,0)	(1,0)	(1,0)	(1,0)	
L1D -311>	(0,1)	(1,0)	(1,0)	(1,0)	(1,0)	(1,0)	(1,0)	(1,0)	(1,0)	(1,0)	(1,0)	(1,0)	(1,0)	(1,0)	(1,0)	(1,0)	
L1D -310>	(0,1)	(4,1)	(1,0)	(1,0)	(1,0)	(1,0)	(1,0)	(1,0)	(1,0)	(1,0)	(1,0)	(1,0)	(1,0)	(1,0)	(1,0)	(1,0)	
L1D -309>	(1,0)	(1,0)	(1,0)	(1,0)	(1,0)	(1,0)	(1,0)	(1,0)	(1,0)	(1,0)	(1,0)	(1,0)	(1,0)	(1,0)	(1,0)	(1,0)	
L1D -308>	(0,1)	(8,11)	(4,17)	(12,5)	(6,6)	(309,3)	(1,0)	(1,0)	(1,0)	(1,0)	(1,0)	(1,0)	(1,0)	(1,0)	(1,0)	(1,0)	
L1D -307>	(1,0)	(1,0)	(1,0)	(1,0)	(1,0)	(1,0)	(1,0)	(1,0)	(1,0)	(1,0)	(1,0)	(1,0)	(1,0)	(1,0)	(1,0)	(1,0)	
L1D -306>	(0,1)	(1,0)	(1,0)	(1,0)	(1,0)	(1,0)	(1,0)	(1,0)	(1,0)	(1,0)	(1,0)	(1,0)	(1,0)	(1,0)	(1,0)	(1,0)	
L1D -305>	(1,0)	(1,0)	(1,0)	(1,0)	(1,0)	(1,0)	(1,0)	(1,0)	(1,0)	(1,0)	(1,0)	(1,0)	(1,0)	(1,0)	(1,0)	(1,0)	
L1D -304>	(8,17)	(1,0)	(1,0)	(1,0)	(1,0)	(1,0)	(1,0)	(1,0)	(1,0)	(1,0)	(1,0)	(1,0)	(1,0)	(1,0)	(1,0)	(1,0)	
L1D -303>	(1,0)	(1,0)	(1,0)	(1,0)	(1,0)	(1,0)	(1,0)	(1,0)	(1,0)	(1,0)	(1,0)	(1,0)	(1,0)	(1,0)	(1,0)	(1,0)	
L1D -302>	(-40,1)	(1,0)	(1,0)	(1,0)	(1,0)	(1,0)	(1,0)	(1,0)	(1,0)	(1,0)	(1,0)	(1,0)	(1,0)	(1,0)	(1,0)	(1,0)	
L1D -301>	(301,3)	(1,0)	(1,0)	(1,0)	(1,0)	(1,0)	(1,0)	(1,0)	(1,0)	(1,0)	(1,0)	(1,0)	(1,0)	(1,0)	(1,0)	(1,0)	
L1D -300>	(0,2)	(1,0)	(1,0)	(1,0)	(1,0)	(1,0)	(1,0)	(1,0)	(1,0)	(1,0)	(1,0)	(1,0)	(1,0)	(1,0)	(1,0)	(1,0)	
L1D -299>	(0,3)	(1,0)	(1,0)	(1,0)	(1,0)	(1,0)	(1,0)	(1,0)	(1,0)	(1,0)	(1,0)	(1,0)	(1,0)	(1,0)	(1,0)	(1,0)	
L1D -298>	(0,4)	(2,2)	(300,2)	(304,1)	(1,0)	(1,0)	(1,0)	(1,0)	(1,0)	(1,0)	(1,0)	(1,0)	(1,0)	(1,0)	(1,0)	(1,0)	
L1D -297>	(-1,1)	(-12,5)	(34,3)	(1,6)	(1,0)	(1,0)	(1,0)	(1,0)	(1,0)	(1,0)	(1,0)	(1,0)	(1,0)	(1,0)	(1,0)	(1,0)	
L1D -296>	(296,78)	(0,14)	(28,4)	(1,1)	(-12,1)	(300,113)	(-48,39)	(304,34)	(34,41)	(4,3)	(302,4)	(8,1)	(1,0)	(1,0)	(1,0)	(1,0)	
L1D -295>	(2,1)	(-1,2)	(1,0)	(1,0)	(1,0)	(1,0)	(1,0)	(1,0)	(1,0)	(1,0)	(1,0)	(1,0)	(1,0)	(1,0)	(1,0)	(1,0)	
L1D -294>	(1,0)	(1,0)	(1,0)	(1,0)	(1,0)	(1,0)	(1,0)	(1,0)	(1,0)	(1,0)	(1,0)	(1,0)	(1,0)	(1,0)	(1,0)	(1,0)	
L1D -293>	(1,0)	(1,0)	(1,0)	(1,0)	(1,0)	(1,0)	(1,0)	(1,0)	(1,0)	(1,0)	(1,0)	(1,0)	(1,0)	(1,0)	(1,0)	(1,0)	
L1D -292>	(292,2)	(300,7)	(1,0)	(1,0)	(1,0)	(1,0)	(1,0)	(1,0)	(1,0)	(1,0)	(1,0)	(1,0)	(1,0)	(1,0)	(1,0)	(1,0)	
L1D -291>	(291,2)	(1,1)	(1,0)	(1,0)	(1,0)	(1,0)	(1,0)	(1,0)	(1,0)	(1,0)	(1,0)	(1,0)	(1,0)	(1,0)	(1,0)	(1,0)	
L1D -290>	(290,1)	(1,0)	(1,0)	(1,0)	(1,0)	(1,0)	(1,0)	(1,0)	(1,0)	(1,0)	(1,0)	(1,0)	(1,0)	(1,0)	(1,0)	(1,0)	
L1D -289>	(1,0)	(1,0)	(1,0)	(1,0)	(1,0)	(1,0)	(1,0)	(1,0)	(1,0)	(1,0)	(1,0)	(1,0)	(1,0)	(1,0)	(1,0)	(1,0)	
L1D -288>	(1,0)	(1,0)	(1,0)	(1,0)	(1,0)	(1,0)	(1,0)	(1,0)	(1,0)	(1,0)	(1,0)	(1,0)	(1,0)	(1,0)	(1,0)	(1,0)	
L1D -287>	(1,0)	(1,0)	(1,0)	(1,0)	(1,0)	(1,0)	(1,0)	(1,0)	(1,0)	(1,0)	(1,0)	(1,0)	(1,0)	(1,0)	(1,0)	(1,0)	
L1D -286>	(1,0)	(1,0)	(1,0)	(1,0)	(1,0)	(1,0)	(1,0)	(1,0)	(1,0)	(1,0)	(1,0)	(1,0)	(1,0)	(1,0)	(1,0)	(1,0)	
L1D -285>	(0,1)	(1,0)	(1,0)	(1,0)	(1,0)	(1,0)	(1,0)	(1,0)	(1,0)	(1,0)	(1,0)	(1,0)	(1,0)	(1,0)	(1,0)	(1,0)	
L1D -284>	(0,45)	(284,63)	(35,8)	(36,82)	(142,24)	(1,0)	(1,0)	(1,0)	(1,0)	(1,0)	(1,0)	(1,0)	(1,0)	(1,0)	(1,0)	(1,0)	
L1D -283>	(23,11)	(12,6)	(35,81)	(142,20)	(0,1)	(1,0)	(1,0)	(1,0)	(1,0)	(1,0)	(1,0)	(1,0)	(1,0)	(1,0)	(1,0)	(1,0)	
L1D -282>	(-13,1)	(1,0)	(1,0)	(1,0)	(1,0)	(1,0)	(1,0)	(1,0)	(1,0)	(1,0)	(1,0)	(1,0)	(1,0)	(1,0)	(1,0)	(1,0)	
L1D -281>	(1,0)	(1,0)	(1,0)	(1,0)	(1,0)	(1,0)	(1,0)	(1,0)	(1,0)	(1,0)	(1,0)	(1,0)	(1,0)	(1,0)	(1,0)	(1,0)	
L1D -280>	(1,0)	(1,0)	(1,0)	(1,0)	(1,0)	(1,0)	(1,0)	(1,0)	(1,0)	(1,0)	(1,0)	(1,0)	(1,0)	(1,0)	(1,0)	(1,0)	
L1D -279>	(63,48)	(279,106)	(1,6)	(1,0)	(1,0)	(1,0)	(1,0)	(1,0)	(1,0)	(1,0)	(1,0)	(1,0)	(1,0)	(1,0)	(1,0)	(1,0)	
L1D -278>	(0,114)	(-1,58)	(62,0)	(1,0)	(1,0)	(1,0)	(1,0)	(1,0)	(1,0)	(1,0)	(1,0)	(1,0)	(1,0)	(1,0)	(1,0)	(1,0)	
L1D -277>	(1,0)	(1,0)	(1,0)	(1,0)	(1,0)	(1,0)	(1,0)	(1,0)	(1,0)	(1,0)	(1,0)	(1,0)	(1,0)	(1,0)	(1,0)	(1,0)	
L1D -276>	(-13,66)	(1,0)	(1,0)	(1,0)	(1,0)	(1,0)	(1,0)	(1,0)	(1,0)	(1,0)	(1,0)	(1,0)	(1,0)	(1,0)	(1,0)	(1,0)	
L1D -275>	(1,0)	(1,0)	(1,0)	(1,0)	(1,0)	(1,0)	(1,0)	(1,0)	(1,0)	(1,0)	(1,0)	(1,0)	(1,0)	(1,0)	(1,0)	(1,0)	
L1D -274>	(0,5)	(-64,1)	(1,0)	(1,0)	(1,0)	(1,0)	(1,0)	(1,0)	(1,0)	(1,0)	(1,0)	(1,0)	(1,0)	(1,0)	(1,0)	(1,0)	
L1D -273>	(1,0)	(1,0)	(1,0)	(1,0)	(1,0)	(1,0)	(1,0)	(1,0)	(1,0)	(1,0)	(1,0)	(1,0)	(1,0)	(1,0)	(1,0)	(1,0)	
L1D -272>	(-64,1)	(1,0)	(1,0)	(1,0)	(1,0)	(1,0)	(1,0)	(1,0)	(1,0)	(1,0)	(1,0)	(1,0)	(1,0)	(1,0)	(1,0)	(1,0)	
L1D -271>	(11,9)	(0,2)	(271,3)	(7,5)	(-12,28)	(-16,2)	(1,0)	(1,0)	(1,0)	(1,0)	(1,0)	(1,0)	(1,0)	(1,0)	(1,0)	(1,0)	
L1D -270>	(1,0)	(1,0)	(1,0)	(1,0)	(1,0)	(1,0)	(1,0)	(1,0)	(1,0)	(1,0)	(1,0)	(1,0)	(1,0)	(1,0)	(1,0)	(1,0)	
L1D -269>	(8,2)	(0,1)	(1,1)	(1,0)	(1,0)	(1,0)	(1,0)	(1,0)	(1,0)	(1,0)	(1,0)	(1,0)	(1,0)	(1,0)	(1,0)	(1,0)	
L1D -268>	(-28,97)	(-16,8)	(14,0)	(50,0)	(0,0)	(1,0)	(1,0)	(1,0)	(1,0)	(1,0)	(1,0)	(1,0)	(1,0)	(1,0)	(1,0)	(1,0)	
L1D -267>	(-16,1)	(291,1)	(1,0)	(1,0)	(1,0)	(1,0)	(1,0)	(1,0)	(1,0)	(1,0)	(1,0)	(1,0)	(1,0)	(1,0)	(1,0)	(1,0)	
L1D -266>	(290,1)	(1,0)	(1,0)	(1,0)	(1,0)	(1,0)	(1,0)	(1,0)	(1,0)	(1,0)	(1,0)	(1,0)	(1,0)	(1,0)	(1,0)	(1,0)	
L1D -265>	(1,0)	(1,0)	(1,0)	(1,0)	(1,0)	(1,0)	(1,0)	(1,0)	(1,0)	(1,0)	(1,0)	(1,0)	(1,0)	(1,0)	(1,0)	(1,0)	
L1D -264>	(0,59)	(-7,4)	(16,3)	(264,1)	(21,1)	(1,0)	(1,0)	(1,0)	(1,0)	(1,0)	(1,0)	(1,0)	(1,0)	(1,0)	(1,0)	(1,0)	
L1D -263>	(2,66)	(1,0)	(1,0)	(1,0)	(1,0)	(1,0)	(1,0)	(1,0)	(1,0)	(1,0)	(1,0)	(1,0)	(1,0)	(1,0)	(1,0)	(1,0)	
L1D -262>	(2,1)	(1,0)	(1,0)	(1,0)	(1,0)	(1,0)	(1,0)	(1,0)	(1,0)	(1,0)	(1,0)	(1,0)	(1,0)	(1,0)	(1,0)	(1,0)	
L1D -261>	(0,2)	(1,0)	(1,0)	(1,0)	(1,0)	(1,0)	(1,0)	(1,0)	(1,0)	(1,0)	(1,0)	(1,0)	(1,0)	(1,0)	(1,0)	(1,0)	
L1D -260>	(2,9)	(-11,6)	(10,1)	(203,1)	(8,1)	(1,0)	(1,0)	(1,0)	(1,0)	(1,0)	(1,0)	(1,0)	(1,0)	(1,0)	(1,0)	(1,0)	
L1D -259>	(225,2)	(3,3)	(7,1)	(17,3)	(-5,1)	(1,0)	(1,0)	(1,0)	(1,0)	(1,0)	(1,0)	(1,0)	(1,0)	(1,0)	(1,0)	(1,0)	
L1D -258>	(0,7)	(6,1)	(4,1)	(-13,16)	(1,1)	(1,0)	(1,0)	(1,0)	(1,0)	(1,0)	(1,0)	(1,0)	(1,0)	(1,0)	(1,0)	(1,0)	
L1D -257>	(15,1)	(253,2)	(-11,30)	(-27,5)	(-14,1)	(1,0)	(1,0)	(1,0)	(1,0)	(1,0)	(1,0)	(1,0)	(1,0)	(1,0)	(1,0)	(1,0)	
L1D -256>	(252,8)	(-2,1)	(-15,1)	(1,0)	(1,0)	(1,0)	(1,0)	(1,0)	(1,0)	(1,0)	(1,0)	(1,0)	(1,0)	(1,0)	(1,0)	(1,0)	
L1D -255>	(1,17)	(1,0)	(1,0)	(1,0)	(1,0)	(1,0)	(1,0)	(1,0)	(1,0)	(1,0)	(1,0)	(1,0)	(1,0)	(1,0)	(1,0)	(1,0)	
L1D -254>	(2,4)	(254,17)	(0,4)	(257,3)	(209,8)	(253,2)	(-3,1)	(250,5)	(252,1)	(-4,1)	(37,1)	(1,0)	(1,0)	(1,0)	(1,0)	(1,0)	
L1D -253>	(0,17)	(254,16)	(6,4)	(257,1)	(250,5)	(18,1)	(1,0)	(1,0)	(1,0)	(1,0)	(1,0)	(1,0)	(1,0)	(1,0)	(1,0)	(1,0)	
L1D -252>	(1,1)	(0,5)	(254,1)	(253,16)	(2,2)	(248,2)	(5,1)	(6,3)	(16,1)	(250,3)	(249,4)	(-82,1)	(1,0)	(1,0)	(1,0)	(1,0)	
L1D -251>	(252,1)	(0,18)	(-1,4)	(1,1)	(6,3)	(250,104)	(249,58)	(248,1)	(1,0)	(1,0)	(1,0)	(1,0)	(1,0)	(1,0)	(1,0)	(1,0)	
L1D -250>	(0,22)	(-8,1)	(-1,27)	(249,83)	(252,6)	(6,1)	(251,1)	(246,3)	(1,1)	(-2,4)	(250,28)	(-3,2)	(247,5)	(248,25)	(2,1)	(1,0)	
L1D -249>	(237,1)	(1,15)	(-1,3)	(249,1)	(5,2)	(0,4)	(284,1)	(36,1)	(6,2)	(1,0)	(1,0)	(1,0)	(1,0)	(1,0)	(1,0)	(1,0)	
L1D -248>	(35,68)	(36,68)	(0,5)	(250,1)	(249,1)	(1,2)	(142,16)	(71,1)	(106,1)	(177,1)	(6,2)	(1,0)	(1,0)	(1,0)	(1,0)	(1,0)	
L1D -247>	(248,16)	(0,3)	(4,1)	(6,3)	(1,0)	(1,0)	(1,0)	(1,0)	(1,0)	(1,0)	(1,0)	(1,0)	(1,0)	(1,0)	(1,0)	(1,0)	
L1D -246>	(6,3)	(1,2)	(0,2)	(1,0)	(1,0)	(1,0)	(1,0)	(1,0)	(1,0)	(1,0)	(1,0)	(1,0)	(1,0)	(1,0)	(1,0)	(1,0)	
L1D -245>	(0,3)	(1,1)	(6,3)	(1,0)	(1,0)	(1,0)	(1,0)	(1,0)	(1,0)	(1,0)	(1,0)	(1,0)	(1,0)	(1,0)	(1,0)	(1,0)	
L1D -244>	(6,2)	(1,2)	(0,3)	(4,1)	(1,0)	(1,0)	(1,0)	(1,0)	(1,0)	(1,0)	(1,0)	(1,0)	(1,0)	(1,0)	(1,0)	(1,0)	
L1D -243>	(0,2)	(1,2)	(1,0)	(1,0)	(1,0)	(1,0)	(1,0)	(1,0)	(1,0)	(1,0)	(1,0)	(1,0)	(1,0)	(1,0)	(1,0)	(1,0)	
L1D -242>	(238,8)	(0,2)	(1,1)	(5,1)	(17,1)	(1,0)	(1,0)	(1,0)	(1,0)	(1,0)	(1,0)	(1,0)	(1,0)	(1,0)	(1,0)	(1,0)	
L1D -241>	(0,7)	(4,1)	(1,1)	(1,0)	(1,0)	(1,0)	(1,0)	(1,0)	(1,0)	(1,0)	(1,0)	(1,0)	(1,0)	(1,0)	(1,0)	(1,0)	
L1D -240>	(240,1)	(0,2)	(1,1)	(6,1)	(16,1)	(1,0)	(1,0)	(1,0)	(1,0)	(1,0)	(1,0)	(1,0)	(1,0)	(1,0)	(1,0)	(1,0)	
L1D -239>	(0,17)	(-19,1)	(1,1)	(5,1)	(1,0)	(1,0)	(1,0)	(1,0)	(1,0)	(1,0)	(1,0)	(1,0)	(1,0)	(1,0)	(1,0)	(1,0)	
L1D -238>	(250,2)	(0,4)	(238,3)	(4,1)	(1,3)	(1,0)	(1,0)	(1,0)	(1,0)	(1,0)	(1,0)	(1,0)	(1,0)	(1,0)	(1,0)	(1,0)	
L1D -237>	(0,18)	(2,2)	(-21,2)	(16,2)	(6,1)	(1,1)	(-46,1)	(-30,1)	(1,0)	(1,0)	(1,0)	(1,0)	(1,0)	(1,0)	(1,0)	(1,0)	
L1D -236>	(0,2)	(5,1)	(1,1)	(-40,1)	(240,1)	(232,1)	(1,0)	(1,0)	(1,0)	(1,0)	(1,0)	(1,0)	(1,0)	(1,0)	(1,0)	(1,0)	
L1D -235>	(0,3)	(-17,1)	(-19,6)	(2,2)	(1,2)	(1,0)	(1,0)	(1,0)	(1,0)	(1,0)	(1,0)	(1,0)	(1,0)	(1,0)	(1,0)	(1,0)	
L1D -234>	(0,4)	(6,1)	(1,1)	(1,0)	(1,0)	(1,0)	(1,0)	(1,0)	(1,0)	(1,0)	(1,0)	(1,0)	(1,0)	(1,0)	(1,0)	(1,0)	
L1D -233>	(0,5)	(-21,2)	(2,2)	(-25,3)	(1,1)	(5,1)	(1,0)	(1,0)	(1,0)	(1,0)	(1,0)	(1,0)	(1,0)	(1,0)	(1,0)	(1,0)	
L1D -232>	(232,2)	(16,1)	(0,2)	(1,2)	(18,1)	(1,0)	(1,0)	(1,0)	(1,0)	(1,0)	(1,0)	(1,0)	(1,0)	(1,0)	(1,0)	(1,0)	
L1D -231>	(-11,2)	(2,2)	(-27,1)	(0,2)	(5,1)	(6,1)	(4,1)	(1,0)	(1,0)	(1,0)	(1,0)	(1,0)	(1,0)	(1,0)	(1,0)	(1,0)	
L1D -230>	(0,6)	(230,2)	(1,5)	(5,1)	(6,1)	(1,0)	(1,0)	(1,0)	(1,0)	(1,0)	(1,0)	(1,0)	(1,0)	(1,0)	(1,0)	(1,0)	
L1D -229>	(2,2)	(4,1)	(0,2)	(5,1)	(1,1)	(-25,1)	(6,2)	(1,0)	(1,0)	(1,0)	(1,0)	(1,0)	(1,0)	(1,0)	(1,0)	(1,0)	
L1D -228>	(1,3)	(0,2)	(5,1)	(6,2)	(1,0)	(1,0)	(1,0)	(1,0)	(1,0)	(1,0)	(1,0)	(1,0)	(1,0)	(1,0)	(1,0)	(1,0)	
L1D -227>	(2,2)	(0,2)	(5,1)	(1,1)	(-27,1)	(6,2)	(1,0)	(1,0)	(1,0)	(1,0)	(1,0)	(1,0)	(1,0)	(1,0)	(1,0)	(1,0)	
L1D -226>	(0,6)	(226,2)	(1,7)	(6,3)	(1,0)	(1,0)	(1,0)	(1,0)	(1,0)	(1,0)	(1,0)	(1,0)	(1,0)	(1,0)	(1,0)	(1,0)	
L1D -225>	(0,2)	(6,4)	(1,0)	(1,0)	(1,0)	(1,0)	(1,0)	(1,0)	(1,0)	(1,0)	(1,0)	(1,0)	(1,0)	(1,0)	(1,0)	(1,0)	
L1D -224>	(0,2)	(1,1)	(4,1)	(6,2)	(1,0)	(1,0)	(1,0)	(1,0)	(1,0)	(1,0)	(1,0)	(1,0)	(1,0)	(1,0)	(1,0)	(1,0)	
L1D -223>	(0,2)	(1,2)	(6,2)	(1,0)	(1,0)	(1,0)	(1,0)	(1,0)	(1,0)	(1,0)	(1,0)	(1,0)	(1,0)	(1,0)	(1,0)	(1,0)	
L1D -222>	(0,4)	(1,1)	(6,3)	(1,0)	(1,0)	(1,0)	(1,0)	(1,0)	(1,0)	(1,0)	(1,0)	(1,0)	(1,0)	(1,0)	(1,0)	(1,0)	
L1D -221>	(0,2)	(1,2)	(6,2)	(1,0)	(1,0)	(1,0)	(1,0)	(1,0)	(1,0)	(1,0)	(1,0)	(1,0)	(1,0)	(1,0)	(1,0)	(1,0)	
L1D -220>	(216,1)	(0,1)	(1,2)	(6,2)	(1,0)	(1,0)	(1,0)	(1,0)	(1,0)	(1,0)	(1,0)	(1,0)	(1,0)	(1,0)	(1,0)	(1,0)	
L1D -219>	(0,8)	(5,1)	(4,2)	(6,2)	(1,0)	(1,0)	(1,0)	(1,0)	(1,0)	(1,0)	(1,0)	(1,0)	(1,0)	(1,0)	(1,0)	(1,0)	
L1D -218>	(1,1)	(0,1)	(218,1)	(140,1)	(5,1)	(-162,1)	(222,1)	(6,1)	(1,0)	(1,0)	(1,0)	(1,0)	(1,0)	(1,0)	(1,0)	(1,0)	
L1D -217>	(0,1)	(-1,1)	(1,1)	(1,0)	(1,0)	(1,0)	(1,0)	(1,0)	(1,0)	(1,0)	(1,0)	(1,0)	(1,0)	(1,0)	(1,0)	(1,0)	
L1D -216>	(-62,120)	(216,11)	(-63,32)	(0,1)	(152,1)	(1,0)	(1,0)	(1,0)	(1,0)	(1,0)	(1,0)	(1,0)	(1,0)	(1,0)	(1,0)	(1,0)	
L1D -215>	(0,2)	(2,2)	(-1,2)	(1,0)	(1,0)	(1,0)	(1,0)	(1,0)	(1,0)	(1,0)	(1,0)	(1,0)	(1,0)	(1,0)	(1,0)	(1,0)	
L1D -214>	(36,3)	(210,1)	(1,0)	(1,0)	(1,0)	(1,0)	(1,0)	(1,0)	(1,0)	(1,0)	(1,0)	(1,0)	(1,0)	(1,0)	(1,0)	(1,0)	
L1D -213>	(36,125)	(108,1)	(-41,1)	(2,2)	(151,2)	(178,1)	(71,1)	(35,2)	(249,2)	(0,1)	(1,0)	(1,0)	(1,0)	(1,0)	(1,0)	(1,0)	
L1D -212>	(35,124)	(0,8)	(177,1)	(2,1)	(212,1)	(216,1)	(1,0)	(1,0)	(1,0)	(1,0)	(1,0)	(1,0)	(1,0)	(1,0)	(1,0)	(1,0)	
L1D -211>	(0,4)	(2,2)	(1,0)	(1,0)	(1,0)	(1,0)	(1,0)	(1,0)	(1,0)	(1,0)	(1,0)	(1,0)	(1,0)	(1,0)	(1,0)	(1,0)	
L1D -210>	(0,2)	(1,0)	(1,0)	(1,0)	(1,0)	(1,0)	(1,0)	(1,0)	(1,0)	(1,0)	(1,0)	(1,0)	(1,0)	(1,0)	(1,0)	(1,0)	
L1D -209>	(2,2)	(1,0)	(1,0)	(1,0)	(1,0)	(1,0)	(1,0)	(1,0)	(1,0)	(1,0)	(1,0)	(1,0)	(1,0)	(1,0)	(1,0)	(1,0)	
L1D -208>	(109,2)	(212,1)	(1,1)	(1,0)	(1,0)	(1,0)	(1,0)	(1,0)	(1,0)	(1,0)	(1,0)	(1,0)	(1,0)	(1,0)	(1,0)	(1,0)	
L1D -207>	(75,1)	(0,2)	(1,0)	(1,0)	(1,0)	(1,0)	(1,0)	(1,0)	(1,0)	(1,0)	(1,0)	(1,0)	(1,0)	(1,0)	(1,0)	(1,0)	
L1D -206>	(-13,2)	(1,0)	(1,0)	(1,0)	(1,0)	(1,0)	(1,0)	(1,0)	(1,0)	(1,0)	(1,0)	(1,0)	(1,0)	(1,0)	(1,0)	(1,0)	
L1D -205>	(1,0)	(1,0)	(1,0)	(1,0)	(1,0)	(1,0)	(1,0)	(1,0)	(1,0)	(1,0)	(1,0)	(1,0)	(1,0)	(1,0)	(1,0)	(1,0)	
L1D -204>	(0,2)	(1,0)	(1,0)	(1,0)	(1,0)	(1,0)	(1,0)	(1,0)	(1,0)	(1,0)	(1,0)	(1,0)	(1,0)	(1,0)	(1,0)	(1,0)	
L1D -203>	(1,0)	(1,0)	(1,0)	(1,0)	(1,0)	(1,0)	(1,0)	(1,0)	(1,0)	(1,0)	(1,0)	(1,0)	(1,0)	(1,0)	(1,0)	(1,0)	
L1D -202>	(-13,2)	(1,0)	(1,0)	(1,0)	(1,0)	(1,0)	(1,0)	(1,0)	(1,0)	(1,0)	(1,0)	(1,0)	(1,0)	(1,0)	(1,0)	(1,0)	
L1D -201>	(1,0)	(1,0)	(1,0)	(1,0)	(1,0)	(1,0)	(1,0)	(1,0)	(1,0)	(1,0)	(1,0)	(1,0)	(1,0)	(1,0)	(1,0)	(1,0)	
L1D -200>	(0,2)	(1,0)	(1,0)	(1,0)	(1,0)	(1,0)	(1,0)	(1,0)	(1,0)	(1,0)	(1,0)	(1,0)	(1,0)	(1,0)	(1,0)	(1,0)	
L1D -199>	(1,0)	(1,0)	(1,0)	(1,0)	(1,0)	(1,0)	(1,0)	(1,0)	(1,0)	(1,0)	(1,0)	(1,0)	(1,0)	(1,0)	(1,0)	(1,0)	
L1D -198>	(166,1)	(54,2)	(38,1)	(1,0)	(1,0)	(1,0)	(1,0)	(1,0)	(1,0)	(1,0)	(1,0)	(1,0)	(1,0)	(1,0)	(1,0)	(1,0)	
L1D -197>	(136,2)	(201,1)	(1,0)	(1,0)	(1,0)	(1,0)	(1,0)	(1,0)	(1,0)	(1,0)	(1,0)	(1,0)	(1,0)	(1,0)	(1,0)	(1,0)	
L1D -196>	(-12,2)	(1,0)	(1,0)	(1,0)	(1,0)	(1,0)	(1,0)	(1,0)	(1,0)	(1,0)	(1,0)	(1,0)	(1,0)	(1,0)	(1,0)	(1,0)	
L1D -195>	(0,4)	(6,1)	(1,2)	(1,0)	(1,0)	(1,0)	(1,0)	(1,0)	(1,0)	(1,0)	(1,0)	(1,0)	(1,0)	(1,0)	(1,0)	(1,0)	
L1D -194>	(1,0)	(1,0)	(1,0)	(1,0)	(1,0)	(1,0)	(1,0)	(1,0)	(1,0)	(1,0)	(1,0)	(1,0)	(1,0)	(1,0)	(1,0)	(1,0)	
L1D -193>	(1,0)	(1,0)	(1,0)	(1,0)	(1,0)	(1,0)	(1,0)	(1,0)	(1,0)	(1,0)	(1,0)	(1,0)	(1,0)	(1,0)	(1,0)	(1,0)	
L1D -192>	(1,1)	(1,0)	(1,0)	(1,0)	(1,0)	(1,0)	(1,0)	(1,0)	(1,0)	(1,0)	(1,0)	(1,0)	(1,0)	(1,0)	(1,0)	(1,0)	
L1D -191>	(167,2)	(1,0)	(1,0)	(1,0)	(1,0)	(1,0)	(1,0)	(1,0)	(1,0)	(1,0)	(1,0)	(1,0)	(1,0)	(1,0)	(1,0)	(1,0)	
L1D -190>	(147,2)	(121,2)	(16,2)	(1,1)	(195,1)	(1,0)	(1,0)	(1,0)	(1,0)	(1,0)	(1,0)	(1,0)	(1,0)	(1,0)	(1,0)	(1,0)	
L1D -189>	(0,4)	(-1,1)	(1,0)	(1,0)	(1,0)	(1,0)	(1,0)	(1,0)	(1,0)	(1,0)	(1,0)	(1,0)	(1,0)	(1,0)	(1,0)	(1,0)	
L1D -188>	(0,9)	(7,2)	(1,0)	(1,0)	(1,0)	(1,0)	(1,0)	(1,0)	(1,0)	(1,0)	(1,0)	(1,0)	(1,0)	(1,0)	(1,0)	(1,0)	
L1D -187>	(0,4)	(1,0)	(1,0)	(1,0)	(1,0)	(1,0)	(1,0)	(1,0)	(1,0)	(1,0)	(1,0)	(1,0)	(1,0)	(1,0)	(1,0)	(1,0)	
L1D -186>	(0,4)	(1,0)	(1,0)	(1,0)	(1,0)	(1,0)	(1,0)	(1,0)	(1,0)	(1,0)	(1,0)	(1,0)	(1,0)	(1,0)	(1,0)	(1,0)	
L1D -185>	(1,2)	(0,5)	(1,0)	(1,0)	(1,0)	(1,0)	(1,0)	(1,0)	(1,0)	(1,0)	(1,0)	(1,0)	(1,0)	(1,0)	(1,0)	(1,0)	
L1D -184>	(0,8)	(2,1)	(1,1)	(4,1)	(1,0)	(1,0)	(1,0)	(1,0)	(1,0)	(1,0)	(1,0)	(1,0)	(1,0)	(1,0)	(1,0)	(1,0)	
L1D -183>	(13,11)	(0,47)	(1,0)	(1,0)	(1,0)	(1,0)	(1,0)	(1,0)	(1,0)	(1,0)	(1,0)	(1,0)	(1,0)	(1,0)	(1,0)	(1,0)	
L1D -182>	(0,4)	(1,0)	(1,0)	(1,0)	(1,0)	(1,0)	(1,0)	(1,0)	(1,0)	(1,0)	(1,0)	(1,0)	(1,0)	(1,0)	(1,0)	(1,0)	
L1D -181>	(0,4)	(1,0)	(1,0)	(1,0)	(1,0)	(1,0)	(1,0)	(1,0)	(1,0)	(1,0)	(1,0)	(1,0)	(1,0)	(1,0)	(1,0)	(1,0)	
L1D -180>	(0,5)	(56,1)	(1,0)	(1,0)	(1,0)	(1,0)	(1,0)	(1,0)	(1,0)	(1,0)	(1,0)	(1,0)	(1,0)	(1,0)	(1,0)	(1,0)	
L1D -179>	(0,6)	(107,4)	(1,0)	(1,0)	(1,0)	(1,0)	(1,0)	(1,0)	(1,0)	(1,0)	(1,0)	(1,0)	(1,0)	(1,0)	(1,0)	(1,0)	
L1D -178>	(0,6)	(36,3)	(213,1)	(1,0)	(1,0)	(1,0)	(1,0)	(1,0)	(1,0)	(1,0)	(1,0)	(1,0)	(1,0)	(1,0)	(1,0)	(1,0)	
L1D -177>	(0,4)	(35,110)	(36,106)	(71,1)	(142,6)	(107,1)	(106,1)	(177,1)	(1,0)	(1,0)	(1,0)	(1,0)	(1,0)	(1,0)	(1,0)	(1,0)	
L1D -176>	(0,6)	(16,1)	(1,0)	(1,0)	(1,0)	(1,0)	(1,0)	(1,0)	(1,0)	(1,0)	(1,0)	(1,0)	(1,0)	(1,0)	(1,0)	(1,0)	
L1D -175>	(0,6)	(1,0)	(1,0)	(1,0)	(1,0)	(1,0)	(1,0)	(1,0)	(1,0)	(1,0)	(1,0)	(1,0)	(1,0)	(1,0)	(1,0)	(1,0)	
L1D -174>	(0,8)	(81,2)	(1,2)	(1,0)	(1,0)	(1,0)	(1,0)	(1,0)	(1,0)	(1,0)	(1,0)	(1,0)	(1,0)	(1,0)	(1,0)	(1,0)	
L1D -173>	(0,6)	(-11,2)	(-1,1)	(1,0)	(1,0)	(1,0)	(1,0)	(1,0)	(1,0)	(1,0)	(1,0)	(1,0)	(1,0)	(1,0)	(1,0)	(1,0)	
L1D -172>	(0,6)	(-9,3)	(1,0)	(1,0)	(1,0)	(1,0)	(1,0)	(1,0)	(1,0)	(1,0)	(1,0)	(1,0)	(1,0)	(1,0)	(1,0)	(1,0)	
L1D -171>	(0,6)	(1,0)	(1,0)	(1,0)	(1,0)	(1,0)	(1,0)	(1,0)	(1,0)	(1,0)	(1,0)	(1,0)	(1,0)	(1,0)	(1,0)	(1,0)	
L1D -170>	(0,4)	(1,0)	(1,0)	(1,0)	(1,0)	(1,0)	(1,0)	(1,0)	(1,0)	(1,0)	(1,0)	(1,0)	(1,0)	(1,0)	(1,0)	(1,0)	
L1D -169>	(-9,2)	(0,5)	(1,0)	(1,0)	(1,0)	(1,0)	(1,0)	(1,0)	(1,0)	(1,0)	(1,0)	(1,0)	(1,0)	(1,0)	(1,0)	(1,0)	
L1D -168>	(141,1)	(0,7)	(4,1)	(1,0)	(1,0)	(1,0)	(1,0)	(1,0)	(1,0)	(1,0)	(1,0)	(1,0)	(1,0)	(1,0)	(1,0)	(1,0)	
L1D -167>	(0,4)	(1,0)	(1,0)	(1,0)	(1,0)	(1,0)	(1,0)	(1,0)	(1,0)	(1,0)	(1,0)	(1,0)	(1,0)	(1,0)	(1,0)	(1,0)	
L1D -166>	(0,4)	(1,0)	(1,0)	(1,0)	(1,0)	(1,0)	(1,0)	(1,0)	(1,0)	(1,0)	(1,0)	(1,0)	(1,0)	(1,0)	(1,0)	(1,0)	
L1D -165>	(0,4)	(1,0)	(1,0)	(1,0)	(1,0)	(1,0)	(1,0)	(1,0)	(1,0)	(1,0)	(1,0)	(1,0)	(1,0)	(1,0)	(1,0)	(1,0)	
L1D -164>	(0,4)	(1,0)	(1,0)	(1,0)	(1,0)	(1,0)	(1,0)	(1,0)	(1,0)	(1,0)	(1,0)	(1,0)	(1,0)	(1,0)	(1,0)	(1,0)	
L1D -163>	(141,1)	(0,4)	(6,1)	(1,0)	(1,0)	(1,0)	(1,0)	(1,0)	(1,0)	(1,0)	(1,0)	(1,0)	(1,0)	(1,0)	(1,0)	(1,0)	
L1D -162>	(0,6)	(302,1)	(1,0)	(1,0)	(1,0)	(1,0)	(1,0)	(1,0)	(1,0)	(1,0)	(1,0)	(1,0)	(1,0)	(1,0)	(1,0)	(1,0)	
L1D -161>	(0,4)	(1,0)	(1,0)	(1,0)	(1,0)	(1,0)	(1,0)	(1,0)	(1,0)	(1,0)	(1,0)	(1,0)	(1,0)	(1,0)	(1,0)	(1,0)	
L1D -160>	(111,2)	(0,7)	(1,1)	(1,0)	(1,0)	(1,0)	(1,0)	(1,0)	(1,0)	(1,0)	(1,0)	(1,0)	(1,0)	(1,0)	(1,0)	(1,0)	
L1D -159>	(141,52)	(0,4)	(1,1)	(1,0)	(1,0)	(1,0)	(1,0)	(1,0)	(1,0)	(1,0)	(1,0)	(1,0)	(1,0)	(1,0)	(1,0)	(1,0)	
L1D -158>	(129,2)	(0,4)	(1,0)	(1,0)	(1,0)	(1,0)	(1,0)	(1,0)	(1,0)	(1,0)	(1,0)	(1,0)	(1,0)	(1,0)	(1,0)	(1,0)	
L1D -157>	(-13,2)	(0,4)	(1,0)	(1,0)	(1,0)	(1,0)	(1,0)	(1,0)	(1,0)	(1,0)	(1,0)	(1,0)	(1,0)	(1,0)	(1,0)	(1,0)	
L1D -156>	(0,4)	(1,1)	(1,0)	(1,0)	(1,0)	(1,0)	(1,0)	(1,0)	(1,0)	(1,0)	(1,0)	(1,0)	(1,0)	(1,0)	(1,0)	(1,0)	
L1D -155>	(0,4)	(-17,1)	(4,1)	(1,0)	(1,0)	(1,0)	(1,0)	(1,0)	(1,0)	(1,0)	(1,0)	(1,0)	(1,0)	(1,0)	(1,0)	(1,0)	
L1D -154>	(0,2)	(1,0)	(1,0)	(1,0)	(1,0)	(1,0)	(1,0)	(1,0)	(1,0)	(1,0)	(1,0)	(1,0)	(1,0)	(1,0)	(1,0)	(1,0)	
L1D -153>	(126,2)	(75,1)	(1,0)	(1,0)	(1,0)	(1,0)	(1,0)	(1,0)	(1,0)	(1,0)	(1,0)	(1,0)	(1,0)	(1,0)	(1,0)	(1,0)	
L1D -152>	(1,1)	(151,2)	(9,1)	(3,51)	(2,2)	(0,1)	(38,1)	(1,0)	(1,0)	(1,0)	(1,0)	(1,0)	(1,0)	(1,0)	(1,0)	(1,0)	
L1D -151>	(1,2)	(152,1)	(1,0)	(1,0)	(1,0)	(1,0)	(1,0)	(1,0)	(1,0)	(1,0)	(1,0)	(1,0)	(1,0)	(1,0)	(1,0)	(1,0)	
L1D -150>	(151,2)	(101,2)	(-13,2)	(92,2)	(1,0)	(1,0)	(1,0)	(1,0)	(1,0)	(1,0)	(1,0)	(1,0)	(1,0)	(1,0)	(1,0)	(1,0)	
L1D -149>	(88,53)	(13,1)	(1,0)	(1,0)	(1,0)	(1,0)	(1,0)	(1,0)	(1,0)	(1,0)	(1,0)	(1,0)	(1,0)	(1,0)	(1,0)	(1,0)	
L1D -148>	(0,2)	(148,2)	(1,0)	(1,0)	(1,0)	(1,0)	(1,0)	(1,0)	(1,0)	(1,0)	(1,0)	(1,0)	(1,0)	(1,0)	(1,0)	(1,0)	
L1D -147>	(148,2)	(93,1)	(1,1)	(1,0)	(1,0)	(1,0)	(1,0)	(1,0)	(1,0)	(1,0)	(1,0)	(1,0)	(1,0)	(1,0)	(1,0)	(1,0)	
L1D -146>	(1,0)	(1,0)	(1,0)	(1,0)	(1,0)	(1,0)	(1,0)	(1,0)	(1,0)	(1,0)	(1,0)	(1,0)	(1,0)	(1,0)	(1,0)	(1,0)	
L1D -145>	(69,54)	(1,0)	(1,0)	(1,0)	(1,0)	(1,0)	(1,0)	(1,0)	(1,0)	(1,0)	(1,0)	(1,0)	(1,0)	(1,0)	(1,0)	(1,0)	
L1D -144>	(47,50)	(12,1)	(-3,1)	(1,0)	(1,0)	(1,0)	(1,0)	(1,0)	(1,0)	(1,0)	(1,0)	(1,0)	(1,0)	(1,0)	(1,0)	(1,0)	
L1D -143>	(9,2)	(36,1)	(141,1)	(1,0)	(1,0)	(1,0)	(1,0)	(1,0)	(1,0)	(1,0)	(1,0)	(1,0)	(1,0)	(1,0)	(1,0)	(1,0)	
L1D -142>	(-35,1)	(36,29)	(35,10)	(213,1)	(178,1)	(71,1)	(107,1)	(1,0)	(1,0)	(1,0)	(1,0)	(1,0)	(1,0)	(1,0)	(1,0)	(1,0)	
L1D -141>	(142,1)	(35,20)	(2,1)	(1,0)	(1,0)	(1,0)	(1,0)	(1,0)	(1,0)	(1,0)	(1,0)	(1,0)	(1,0)	(1,0)	(1,0)	(1,0)	
L1D -140>	(-100,1)	(1,0)	(1,0)	(1,0)	(1,0)	(1,0)	(1,0)	(1,0)	(1,0)	(1,0)	(1,0)	(1,0)	(1,0)	(1,0)	(1,0)	(1,0)	
L1D -139>	(1,1)	(1,0)	(1,0)	(1,0)	(1,0)	(1,0)	(1,0)	(1,0)	(1,0)	(1,0)	(1,0)	(1,0)	(1,0)	(1,0)	(1,0)	(1,0)	
L1D -138>	(2,2)	(38,1)	(1,0)	(1,0)	(1,0)	(1,0)	(1,0)	(1,0)	(1,0)	(1,0)	(1,0)	(1,0)	(1,0)	(1,0)	(1,0)	(1,0)	
L1D -137>	(1,0)	(1,0)	(1,0)	(1,0)	(1,0)	(1,0)	(1,0)	(1,0)	(1,0)	(1,0)	(1,0)	(1,0)	(1,0)	(1,0)	(1,0)	(1,0)	
L1D -136>	(16,2)	(1,0)	(1,0)	(1,0)	(1,0)	(1,0)	(1,0)	(1,0)	(1,0)	(1,0)	(1,0)	(1,0)	(1,0)	(1,0)	(1,0)	(1,0)	
L1D -135>	(38,1)	(93,1)	(1,0)	(1,0)	(1,0)	(1,0)	(1,0)	(1,0)	(1,0)	(1,0)	(1,0)	(1,0)	(1,0)	(1,0)	(1,0)	(1,0)	
L1D -134>	(1,1)	(1,0)	(1,0)	(1,0)	(1,0)	(1,0)	(1,0)	(1,0)	(1,0)	(1,0)	(1,0)	(1,0)	(1,0)	(1,0)	(1,0)	(1,0)	
L1D -133>	(1,0)	(1,0)	(1,0)	(1,0)	(1,0)	(1,0)	(1,0)	(1,0)	(1,0)	(1,0)	(1,0)	(1,0)	(1,0)	(1,0)	(1,0)	(1,0)	
L1D -132>	(1,3)	(1,0)	(1,0)	(1,0)	(1,0)	(1,0)	(1,0)	(1,0)	(1,0)	(1,0)	(1,0)	(1,0)	(1,0)	(1,0)	(1,0)	(1,0)	
L1D -131>	(1,0)	(1,0)	(1,0)	(1,0)	(1,0)	(1,0)	(1,0)	(1,0)	(1,0)	(1,0)	(1,0)	(1,0)	(1,0)	(1,0)	(1,0)	(1,0)	
L1D -130>	(1,4)	(-40,1)	(83,53)	(-50,1)	(1,0)	(1,0)	(1,0)	(1,0)	(1,0)	(1,0)	(1,0)	(1,0)	(1,0)	(1,0)	(1,0)	(1,0)	
L1D -129>	(14,2)	(-1,1)	(1,0)	(1,0)	(1,0)	(1,0)	(1,0)	(1,0)	(1,0)	(1,0)	(1,0)	(1,0)	(1,0)	(1,0)	(1,0)	(1,0)	
L1D -128>	(0,14)	(1,5)	(1,0)	(1,0)	(1,0)	(1,0)	(1,0)	(1,0)	(1,0)	(1,0)	(1,0)	(1,0)	(1,0)	(1,0)	(1,0)	(1,0)	
L1D -127>	(131,1)	(19,1)	(45,2)	(0,11)	(114,77)	(1,0)	(1,0)	(1,0)	(1,0)	(1,0)	(1,0)	(1,0)	(1,0)	(1,0)	(1,0)	(1,0)	
L1D -126>	(114,26)	(1,0)	(1,0)	(1,0)	(1,0)	(1,0)	(1,0)	(1,0)	(1,0)	(1,0)	(1,0)	(1,0)	(1,0)	(1,0)	(1,0)	(1,0)	
L1D -125>	(114,1)	(1,3)	(1,0)	(1,0)	(1,0)	(1,0)	(1,0)	(1,0)	(1,0)	(1,0)	(1,0)	(1,0)	(1,0)	(1,0)	(1,0)	(1,0)	
L1D -124>	(124,51)	(-55,2)	(1,21)	(0,2)	(2,1)	(1,0)	(1,0)	(1,0)	(1,0)	(1,0)	(1,0)	(1,0)	(1,0)	(1,0)	(1,0)	(1,0)	
L1D -123>	(0,5)	(1,1)	(1,0)	(1,0)	(1,0)	(1,0)	(1,0)	(1,0)	(1,0)	(1,0)	(1,0)	(1,0)	(1,0)	(1,0)	(1,0)	(1,0)	
L1D -122>	(0,2)	(4,1)	(1,5)	(115,3)	(-68,1)	(1,0)	(1,0)	(1,0)	(1,0)	(1,0)	(1,0)	(1,0)	(1,0)	(1,0)	(1,0)	(1,0)	
L1D -121>	(115,3)	(-66,2)	(31,3)	(1,4)	(4,1)	(0,4)	(114,3)	(-1,1)	(1,0)	(1,0)	(1,0)	(1,0)	(1,0)	(1,0)	(1,0)	(1,0)	
L1D -120>	(105,127)	(120,17)	(0,0)	(1,0)	(1,0)	(1,0)	(1,0)	(1,0)	(1,0)	(1,0)	(1,0)	(1,0)	(1,0)	(1,0)	(1,0)	(1,0)	
L1D -119>	(-15,1)	(1,1)	(119,1)	(0,1)	(1,0)	(1,0)	(1,0)	(1,0)	(1,0)	(1,0)	(1,0)	(1,0)	(1,0)	(1,0)	(1,0)	(1,0)	
L1D -118>	(0,2)	(1,0)	(1,0)	(1,0)	(1,0)	(1,0)	(1,0)	(1,0)	(1,0)	(1,0)	(1,0)	(1,0)	(1,0)	(1,0)	(1,0)	(1,0)	
L1D -117>	(119,2)	(1,0)	(1,0)	(1,0)	(1,0)	(1,0)	(1,0)	(1,0)	(1,0)	(1,0)	(1,0)	(1,0)	(1,0)	(1,0)	(1,0)	(1,0)	
L1D -116>	(-64,0)	(123,118)	(10,0)	(2,1)	(1,1)	(1,0)	(1,0)	(1,0)	(1,0)	(1,0)	(1,0)	(1,0)	(1,0)	(1,0)	(1,0)	(1,0)	
L1D -115>	(131,1)	(-1,2)	(0,1)	(1,1)	(110,25)	(114,1)	(3,1)	(115,1)	(1,0)	(1,0)	(1,0)	(1,0)	(1,0)	(1,0)	(1,0)	(1,0)	
L1D -114>	(115,1)	(78,0)	(0,96)	(114,28)	(-17,0)	(102,9)	(1,0)	(101,0)	(2,0)	(24,0)	(1,0)	(1,0)	(1,0)	(1,0)	(1,0)	(1,0)	
L1D -113>	(-1,0)	(0,97)	(113,0)	(114,26)	(1,0)	(100,0)	(101,0)	(117,0)	(129,0)	(1,0)	(1,0)	(1,0)	(1,0)	(1,0)	(1,0)	(1,0)	
L1D -112>	(12,1)	(0,1)	(80,2)	(1,0)	(1,0)	(1,0)	(1,0)	(1,0)	(1,0)	(1,0)	(1,0)	(1,0)	(1,0)	(1,0)	(1,0)	(1,0)	
L1D -111>	(1,2)	(1,0)	(1,0)	(1,0)	(1,0)	(1,0)	(1,0)	(1,0)	(1,0)	(1,0)	(1,0)	(1,0)	(1,0)	(1,0)	(1,0)	(1,0)	
L1D -110>	(-10,2)	(1,0)	(1,0)	(1,0)	(1,0)	(1,0)	(1,0)	(1,0)	(1,0)	(1,0)	(1,0)	(1,0)	(1,0)	(1,0)	(1,0)	(1,0)	
L1D -109>	(1,0)	(1,0)	(1,0)	(1,0)	(1,0)	(1,0)	(1,0)	(1,0)	(1,0)	(1,0)	(1,0)	(1,0)	(1,0)	(1,0)	(1,0)	(1,0)	
L1D -108>	(1,1)	(1,0)	(1,0)	(1,0)	(1,0)	(1,0)	(1,0)	(1,0)	(1,0)	(1,0)	(1,0)	(1,0)	(1,0)	(1,0)	(1,0)	(1,0)	
L1D -107>	(1,6)	(26,48)	(110,3)	(-12,2)	(180,3)	(-105,2)	(35,2)	(36,32)	(71,2)	(34,18)	(-70,1)	(1,0)	(1,0)	(1,0)	(1,0)	(1,0)	
L1D -106>	(36,100)	(35,127)	(1,1)	(142,4)	(177,1)	(71,1)	(-35,0)	(1,0)	(1,0)	(1,0)	(1,0)	(1,0)	(1,0)	(1,0)	(1,0)	(1,0)	
L1D -105>	(0,0)	(92,119)	(104,0)	(1,0)	(1,0)	(1,0)	(1,0)	(1,0)	(1,0)	(1,0)	(1,0)	(1,0)	(1,0)	(1,0)	(1,0)	(1,0)	
L1D -104>	(27,3)	(1,1)	(-46,1)	(152,1)	(1,0)	(1,0)	(1,0)	(1,0)	(1,0)	(1,0)	(1,0)	(1,0)	(1,0)	(1,0)	(1,0)	(1,0)	
L1D -103>	(1,11)	(82,25)	(1,0)	(1,0)	(1,0)	(1,0)	(1,0)	(1,0)	(1,0)	(1,0)	(1,0)	(1,0)	(1,0)	(1,0)	(1,0)	(1,0)	
L1D -102>	(9,1)	(-13,1)	(1,14)	(103,17)	(81,15)	(151,2)	(-98,1)	(85,1)	(1,0)	(1,0)	(1,0)	(1,0)	(1,0)	(1,0)	(1,0)	(1,0)	
L1D -101>	(27,3)	(1,14)	(102,45)	(23,12)	(101,4)	(1,0)	(1,0)	(1,0)	(1,0)	(1,0)	(1,0)	(1,0)	(1,0)	(1,0)	(1,0)	(1,0)	
L1D -100>	(-16,6)	(62,1)	(16,3)	(101,14)	(1,0)	(1,0)	(1,0)	(1,0)	(1,0)	(1,0)	(1,0)	(1,0)	(1,0)	(1,0)	(1,0)	(1,0)	
L1D -99>	(79,54)	(-1,2)	(-9,1)	(2,1)	(0,1)	(1,0)	(1,0)	(1,0)	(1,0)	(1,0)	(1,0)	(1,0)	(1,0)	(1,0)	(1,0)	(1,0)	
L1D -98>	(-72,1)	(-16,3)	(1,1)	(16,1)	(147,2)	(2,2)	(-115,2)	(100,1)	(-116,1)	(1,0)	(1,0)	(1,0)	(1,0)	(1,0)	(1,0)	(1,0)	
L1D -97>	(-47,1)	(1,0)	(1,0)	(1,0)	(1,0)	(1,0)	(1,0)	(1,0)	(1,0)	(1,0)	(1,0)	(1,0)	(1,0)	(1,0)	(1,0)	(1,0)	
L1D -96>	(-25,9)	(25,1)	(1,0)	(1,0)	(1,0)	(1,0)	(1,0)	(1,0)	(1,0)	(1,0)	(1,0)	(1,0)	(1,0)	(1,0)	(1,0)	(1,0)	
L1D -95>	(0,18)	(110,54)	(1,3)	(4,34)	(1,0)	(1,0)	(1,0)	(1,0)	(1,0)	(1,0)	(1,0)	(1,0)	(1,0)	(1,0)	(1,0)	(1,0)	
L1D -94>	(96,2)	(0,1)	(53,1)	(4,19)	(95,8)	(1,0)	(1,0)	(1,0)	(1,0)	(1,0)	(1,0)	(1,0)	(1,0)	(1,0)	(1,0)	(1,0)	
L1D -93>	(0,24)	(111,1)	(37,1)	(13,1)	(87,76)	(1,0)	(1,0)	(1,0)	(1,0)	(1,0)	(1,0)	(1,0)	(1,0)	(1,0)	(1,0)	(1,0)	
L1D -92>	(0,6)	(12,2)	(1,1)	(4,21)	(94,3)	(95,3)	(1,0)	(1,0)	(1,0)	(1,0)	(1,0)	(1,0)	(1,0)	(1,0)	(1,0)	(1,0)	
L1D -91>	(0,2)	(1,5)	(41,52)	(89,2)	(4,9)	(8,1)	(1,0)	(1,0)	(1,0)	(1,0)	(1,0)	(1,0)	(1,0)	(1,0)	(1,0)	(1,0)	
L1D -90>	(91,2)	(1,78)	(4,22)	(0,54)	(90,115)	(-93,1)	(2,1)	(8,2)	(1,0)	(1,0)	(1,0)	(1,0)	(1,0)	(1,0)	(1,0)	(1,0)	
L1D -89>	(-18,1)	(89,1)	(1,1)	(2,1)	(-1,1)	(90,119)	(4,1)	(1,0)	(1,0)	(1,0)	(1,0)	(1,0)	(1,0)	(1,0)	(1,0)	(1,0)	
L1D -88>	(1,1)	(0,1)	(9,1)	(-25,5)	(1,0)	(1,0)	(1,0)	(1,0)	(1,0)	(1,0)	(1,0)	(1,0)	(1,0)	(1,0)	(1,0)	(1,0)	
L1D -87>	(0,2)	(1,1)	(107,4)	(108,21)	(87,1)	(79,1)	(4,2)	(1,0)	(1,0)	(1,0)	(1,0)	(1,0)	(1,0)	(1,0)	(1,0)	(1,0)	
L1D -86>	(0,1)	(3,2)	(62,52)	(157,2)	(16,3)	(1,1)	(89,2)	(128,1)	(86,1)	(4,7)	(87,1)	(1,0)	(1,0)	(1,0)	(1,0)	(1,0)	
L1D -85>	(1,3)	(168,2)	(24,3)	(-25,2)	(101,7)	(1,0)	(1,0)	(1,0)	(1,0)	(1,0)	(1,0)	(1,0)	(1,0)	(1,0)	(1,0)	(1,0)	
L1D -84>	(101,6)	(72,1)	(39,47)	(1,4)	(100,2)	(51,1)	(85,1)	(1,0)	(1,0)	(1,0)	(1,0)	(1,0)	(1,0)	(1,0)	(1,0)	(1,0)	
L1D -83>	(82,1)	(-12,5)	(100,6)	(38,6)	(86,3)	(1,4)	(81,1)	(83,2)	(0,2)	(1,0)	(1,0)	(1,0)	(1,0)	(1,0)	(1,0)	(1,0)	
L1D -82>	(16,1)	(3,1)	(46,2)	(0,46)	(1,2)	(-116,2)	(-57,4)	(85,2)	(-5,1)	(99,1)	(54,2)	(83,4)	(1,0)	(1,0)	(1,0)	(1,0)	
L1D -81>	(1,2)	(102,1)	(9,2)	(-1,2)	(84,2)	(0,3)	(60,1)	(1,0)	(1,0)	(1,0)	(1,0)	(1,0)	(1,0)	(1,0)	(1,0)	(1,0)	
L1D -80>	(1,21)	(140,3)	(83,2)	(81,3)	(89,1)	(-90,1)	(1,0)	(1,0)	(1,0)	(1,0)	(1,0)	(1,0)	(1,0)	(1,0)	(1,0)	(1,0)	
L1D -79>	(0,1)	(82,2)	(1,2)	(-9,4)	(1,0)	(1,0)	(1,0)	(1,0)	(1,0)	(1,0)	(1,0)	(1,0)	(1,0)	(1,0)	(1,0)	(1,0)	
L1D -78>	(0,112)	(1,19)	(116,1)	(76,5)	(84,2)	(69,1)	(101,10)	(78,8)	(-23,24)	(64,7)	(-13,4)	(81,4)	(5,1)	(34,1)	(1,0)	(1,0)	
L1D -77>	(0,70)	(75,5)	(78,5)	(76,3)	(53,3)	(21,18)	(69,2)	(64,3)	(100,3)	(77,14)	(63,14)	(1,9)	(5,4)	(-13,61)	(49,3)	(80,3)	
L1D -76>	(0,72)	(76,12)	(64,5)	(75,10)	(74,2)	(2,12)	(63,3)	(7,2)	(62,7)	(1,6)	(-2,103)	(6,59)	(38,1)	(79,1)	(77,4)	(3,4)	
L1D -75>	(11,124)	(73,1)	(0,44)	(53,5)	(94,18)	(62,3)	(49,4)	(-18,1)	(123,33)	(75,4)	(61,2)	(76,3)	(74,2)	(63,1)	(67,1)	(72,1)	
L1D -74>	(1,10)	(2,8)	(0,59)	(72,14)	(18,2)	(68,2)	(73,7)	(74,5)	(60,3)	(61,2)	(75,5)	(179,2)	(-45,33)	(44,55)	(62,1)	(143,1)	
L1D -73>	(1,4)	(61,6)	(0,81)	(16,1)	(74,9)	(60,8)	(66,25)	(59,7)	(63,1)	(65,43)	(73,6)	(-45,11)	(72,7)	(76,2)	(9,1)	(-33,1)	
L1D -72>	(35,2)	(74,4)	(75,2)	(0,67)	(70,7)	(73,5)	(72,11)	(59,1)	(-5,2)	(64,43)	(58,9)	(60,2)	(71,6)	(-45,10)	(78,12)	(6,2)	
L1D -71>	(71,15)	(59,7)	(69,4)	(0,72)	(70,6)	(72,8)	(63,51)	(57,12)	(58,3)	(1,83)	(-2,12)	(36,31)	(142,1)	(-106,2)	(77,1)	(106,1)	
L1D -70>	(35,9)	(-16,1)	(62,16)	(0,66)	(70,4)	(-18,6)	(71,1)	(142,1)	(68,1)	(58,1)	(1,14)	(2,1)	(56,2)	(57,1)	(69,2)	(6,0)	
L1D -69>	(0,93)	(66,2)	(63,6)	(57,3)	(1,5)	(113,5)	(61,45)	(-2,4)	(56,3)	(16,1)	(90,2)	(69,12)	(55,8)	(70,9)	(67,2)	(68,4)	
L1D -68>	(54,3)	(0,81)	(64,21)	(55,2)	(-4,1)	(56,0)	(66,9)	(68,4)	(6,0)	(77,1)	(69,2)	(60,15)	(67,1)	(36,0)	(83,0)	(3,0)	
L1D -67>	(68,3)	(54,0)	(0,92)	(67,2)	(63,14)	(66,2)	(76,2)	(53,2)	(55,0)	(65,7)	(59,12)	(16,0)	(1,0)	(1,0)	(1,0)	(1,0)	
L1D -66>	(0,95)	(69,1)	(65,2)	(62,23)	(64,12)	(75,2)	(73,23)	(1,1)	(58,20)	(-5,0)	(67,2)	(53,1)	(66,2)	(6,0)	(68,0)	(-2,0)	
L1D -65>	(1,1)	(0,102)	(83,0)	(63,15)	(74,3)	(64,5)	(52,2)	(61,19)	(72,18)	(66,2)	(69,0)	(57,21)	(65,3)	(40,0)	(53,0)	(51,2)	
L1D -64>	(-1,6)	(65,3)	(67,1)	(69,15)	(56,12)	(0,83)	(60,16)	(34,0)	(2,0)	(64,5)	(50,4)	(63,3)	(71,23)	(62,11)	(66,4)	(73,6)	
L1D -63>	(0,85)	(63,39)	(279,6)	(49,1)	(65,1)	(59,13)	(68,11)	(1,1)	(55,4)	(70,19)	(-4,2)	(72,2)	(62,0)	(61,3)	(51,0)	(71,0)	
L1D -62>	(-1,1)	(48,1)	(0,68)	(58,5)	(60,8)	(67,1)	(54,10)	(50,0)	(69,16)	(61,0)	(71,0)	(63,0)	(64,3)	(62,102)	(-4,0)	(1,0)	
L1D -61>	(6,6)	(47,2)	(0,118)	(68,30)	(-4,46)	(62,2)	(14,12)	(70,8)	(101,8)	(57,23)	(61,2)	(66,10)	(63,6)	(59,11)	(53,19)	(1,6)	
L1D -60>	(-4,2)	(0,71)	(69,3)	(67,18)	(78,15)	(59,1)	(58,7)	(46,0)	(48,0)	(56,9)	(100,4)	(65,4)	(52,19)	(1,0)	(62,3)	(61,0)	
L1D -59>	(14,23)	(64,11)	(0,107)	(61,6)	(55,18)	(60,2)	(46,3)	(45,1)	(57,9)	(68,6)	(66,30)	(58,3)	(105,1)	(67,1)	(51,17)	(80,12)	
L1D -58>	(59,2)	(50,8)	(61,1)	(0,96)	(-3,21)	(4,1)	(56,32)	(54,10)	(65,25)	(57,1)	(67,3)	(63,7)	(60,7)	(3,1)	(-5,6)	(105,0)	
L1D -57>	(59,9)	(1,7)	(0,75)	(49,11)	(53,17)	(55,4)	(56,1)	(64,17)	(41,53)	(84,5)	(62,10)	(66,1)	(-12,4)	(58,0)	(27,1)	(4,1)	
L1D -56>	(0,119)	(42,3)	(63,20)	(65,6)	(1,5)	(58,9)	(55,2)	(83,5)	(52,21)	(56,4)	(54,10)	(20,5)	(61,10)	(48,17)	(57,8)	(70,1)	
L1D -55>	(0,126)	(62,24)	(58,21)	(54,2)	(41,3)	(49,1)	(51,18)	(22,0)	(57,4)	(55,4)	(4,2)	(64,2)	(53,14)	(60,13)	(47,17)	(56,0)	
L1D -54>	(45,56)	(0,103)	(-3,24)	(56,5)	(54,1)	(42,1)	(50,12)	(61,26)	(59,4)	(53,0)	(112,0)	(63,2)	(51,0)	(46,13)	(52,11)	(-7,1)	
L1D -53>	(40,71)	(53,3)	(49,17)	(39,2)	(0,119)	(55,7)	(60,40)	(62,2)	(11,1)	(52,3)	(-37,1)	(76,5)	(41,2)	(51,11)	(58,9)	(45,12)	
L1D -52>	(53,4)	(57,14)	(44,15)	(51,1)	(-18,0)	(0,75)	(50,11)	(48,14)	(39,0)	(59,25)	(-206,0)	(40,2)	(54,5)	(8,0)	(-65,0)	(-2,3)	
L1D -51>	(52,1)	(53,5)	(0,78)	(54,2)	(47,17)	(60,2)	(58,16)	(50,3)	(55,1)	(1,0)	(56,9)	(51,0)	(37,0)	(26,58)	(43,10)	(49,7)	
L1D -50>	(0,127)	(46,25)	(49,5)	(125,25)	(57,42)	(51,2)	(48,8)	(16,1)	(52,7)	(58,5)	(30,1)	(55,10)	(42,25)	(-16,1)	(59,6)	(102,1)	
L1D -49>	(50,9)	(41,21)	(54,15)	(0,121)	(45,26)	(35,3)	(36,1)	(56,30)	(51,7)	(47,12)	(18,24)	(20,9)	(58,3)	(49,7)	(-1,24)	(37,4)	
L1D -48>	(1,3)	(57,1)	(36,122)	(0,98)	(53,4)	(30,49)	(55,15)	(44,39)	(50,1)	(47,2)	(46,5)	(16,1)	(100,2)	(40,5)	(49,30)	(37,22)	
L1D -47>	(35,2)	(0,87)	(54,22)	(45,6)	(56,1)	(4,5)	(43,15)	(52,11)	(48,6)	(39,13)	(49,4)	(34,1)	(40,10)	(-1,3)	(1,1)	(59,0)	
L1D -46>	(0,92)	(38,12)	(49,1)	(55,4)	(48,10)	(44,24)	(2,1)	(42,9)	(51,9)	(53,19)	(4,3)	(47,6)	(45,2)	(33,1)	(1,2)	(32,0)	
L1D -45>	(37,8)	(0,93)	(-13,13)	(41,14)	(54,3)	(52,25)	(43,4)	(-296,22)	(50,16)	(8,1)	(47,5)	(114,19)	(13,2)	(45,2)	(113,9)	(19,62)	
L1D -44>	(34,10)	(44,4)	(0,74)	(36,8)	(42,9)	(72,1)	(-4,2)	(-296,37)	(40,13)	(51,20)	(49,13)	(45,2)	(8,12)	(48,7)	(31,18)	(46,7)	
L1D -43>	(0,87)	(52,1)	(42,5)	(50,30)	(11,16)	(39,19)	(46,1)	(44,12)	(41,5)	(-4,19)	(48,12)	(35,19)	(45,5)	(8,1)	(43,2)	(29,2)	
L1D -42>	(48,12)	(40,10)	(0,107)	(41,3)	(30,2)	(49,34)	(38,18)	(19,1)	(44,3)	(42,9)	(47,7)	(43,1)	(34,21)	(2,13)	(46,2)	(52,1)	
L1D -41>	(33,14)	(0,108)	(37,16)	(44,1)	(39,12)	(27,6)	(42,10)	(40,4)	(73,10)	(-4,33)	(48,20)	(50,3)	(43,7)	(46,8)	(41,15)	(6,5)	
L1D -40>	(11,79)	(0,118)	(38,15)	(-1,4)	(39,3)	(27,2)	(47,36)	(36,17)	(-296,1)	(30,1)	(-216,1)	(32,15)	(45,10)	(43,1)	(49,1)	(42,4)	
L1D -39>	(44,19)	(41,1)	(35,22)	(0,58)	(8,4)	(7,1)	(40,2)	(38,2)	(64,1)	(31,18)	(-1,69)	(46,23)	(39,2)	(25,2)	(37,4)	(48,4)	
L1D -38>	(10,3)	(38,5)	(4,24)	(40,5)	(0,67)	(37,1)	(34,8)	(43,3)	(30,4)	(26,1)	(25,1)	(36,8)	(47,1)	(-16,1)	(45,12)	(-78,0)	
L1D -37>	(300,1)	(47,87)	(-14,1)	(-75,1)	(0,55)	(44,16)	(29,12)	(23,4)	(24,1)	(37,5)	(48,8)	(33,4)	(35,4)	(39,1)	(1,9)	(36,1)	
L1D -36>	(38,2)	(36,78)	(0,36)	(26,1)	(-72,0)	(43,2)	(34,4)	(44,0)	(28,1)	(37,14)	(32,0)	(30,0)	(35,0)	(1,9)	(22,0)	(27,0)	
L1D -35>	(32,10)	(36,31)	(35,3)	(37,9)	(22,6)	(0,95)	(21,2)	(31,8)	(40,3)	(27,5)	(33,9)	(42,12)	(-142,1)	(1,4)	(9,1)	(71,1)	
L1D -34>	(7,111)	(0,123)	(6,15)	(26,15)	(32,15)	(2,6)	(8,20)	(39,23)	(41,16)	(43,6)	(30,15)	(4,4)	(3,3)	(31,9)	(20,9)	(1,4)	
L1D -33>	(25,8)	(-3,76)	(40,21)	(33,2)	(38,17)	(29,19)	(0,70)	(20,4)	(31,47)	(35,3)	(6,12)	(1,2)	(7,79)	(19,3)	(32,86)	(-5,22)	
L1D -32>	(0,7)	(30,26)	(37,0)	(31,79)	(39,1)	(24,0)	(1,0)	(34,0)	(28,0)	(-2,2)	(-13,0)	(-1,14)	(29,7)	(-3,1)	(7,0)	(32,23)	
L1D -31>	(-9,4)	(23,11)	(-2,34)	(27,12)	(0,103)	(5,3)	(17,1)	(29,12)	(30,12)	(36,6)	(3,1)	(33,8)	(-1,19)	(40,3)	(-7,3)	(38,21)	
L1D -30>	(2,2)	(0,83)	(37,13)	(-16,4)	(40,9)	(32,6)	(28,24)	(30,8)	(-44,1)	(16,1)	(26,10)	(35,6)	(33,1)	(29,1)	(22,8)	(39,1)	
L1D -29>	(9,3)	(0,66)	(34,5)	(40,7)	(36,9)	(32,30)	(15,2)	(19,8)	(27,6)	(30,24)	(2,22)	(1,9)	(21,4)	(25,9)	(39,3)	(28,2)	
L1D -28>	(-4,101)	(40,1)	(0,79)	(33,15)	(2,34)	(37,4)	(296,19)	(20,24)	(28,46)	(13,48)	(24,13)	(-46,7)	(-84,22)	(35,20)	(15,46)	(42,4)	
L1D -27>	(23,2)	(0,8)	(2,27)	(-6,5)	(19,1)	(8,13)	(1,1)	(27,1)	(40,1)	(25,1)	(9,1)	(15,1)	(34,2)	(7,2)	(13,0)	(12,103)	
L1D -26>	(12,4)	(2,13)	(0,87)	(-62,6)	(-8,10)	(-12,56)	(25,15)	(40,3)	(27,3)	(18,4)	(22,25)	(6,52)	(31,6)	(41,18)	(24,7)	(33,14)	
L1D -25>	(27,63)	(0,108)	(-8,5)	(24,1)	(32,19)	(30,28)	(17,78)	(23,10)	(7,126)	(-11,7)	(12,3)	(34,3)	(-4,14)	(21,13)	(4,9)	(10,33)	
L1D -24>	(13,44)	(7,88)	(25,17)	(2,83)	(30,36)	(0,121)	(21,126)	(14,102)	(16,28)	(15,16)	(11,20)	(31,13)	(5,28)	(20,17)	(-1,1)	(29,9)	
L1D -23>	(1,89)	(24,32)	(10,20)	(0,87)	(19,11)	(23,8)	(31,7)	(21,10)	(15,8)	(2,23)	(28,6)	(30,31)	(-5,2)	(25,6)	(101,5)	(4,6)	
L1D -22>	(8,7)	(-5,1)	(43,1)	(1,84)	(-7,1)	(-3,52)	(0,21)	(7,78)	(18,2)	(14,1)	(29,1)	(36,5)	(25,2)	(3,2)	(21,2)	(13,1)	
L1D -21>	(31,8)	(0,102)	(-18,6)	(15,62)	(21,11)	(13,12)	(30,9)	(1,1)	(27,4)	(-1,35)	(26,9)	(7,11)	(17,19)	(28,27)	(9,25)	(14,98)	
L1D -20>	(9,10)	(-14,52)	(0,106)	(10,58)	(19,1)	(22,5)	(-51,43)	(6,4)	(25,7)	(12,17)	(5,4)	(2,21)	(27,23)	(16,11)	(18,32)	(17,17)	
L1D -19>	(18,48)	(20,35)	(-1,87)	(13,21)	(12,51)	(16,8)	(26,19)	(0,119)	(-6,6)	(27,10)	(3,6)	(11,17)	(15,14)	(17,21)	(24,8)	(-60,15)	
L1D -18>	(-19,104)	(5,53)	(0,63)	(20,8)	(2,90)	(16,6)	(25,15)	(-14,3)	(10,9)	(14,11)	(24,2)	(85,3)	(4,2)	(28,1)	(23,2)	(7,31)	
L1D -17>	(17,53)	(15,3)	(28,1)	(0,34)	(2,70)	(8,49)	(4,5)	(7,5)	(19,2)	(9,11)	(24,8)	(22,2)	(5,91)	(3,2)	(16,2)	(13,3)	
L1D -16>	(-40,44)	(14,3)	(12,5)	(10,9)	(0,24)	(23,15)	(7,1)	(8,5)	(19,1)	(4,6)	(30,7)	(16,6)	(2,11)	(17,124)	(52,1)	(21,2)	
L1D -15>	(11,6)	(-105,42)	(7,35)	(0,30)	(9,25)	(10,17)	(6,56)	(22,8)	(-8,77)	(-5,20)	(2,49)	(-12,6)	(-4,6)	(-7,54)	(-13,49)	(-1,6)	
L1D -14>	(253,3)	(-16,14)	(257,1)	(-2,2)	(7,1)	(9,1)	(15,6)	(14,41)	(-9,20)	(3,1)	(12,1)	(-23,7)	(-8,0)	(10,0)	(24,78)	(21,0)	
L1D -13>	(7,11)	(-1,31)	(1,5)	(4,5)	(0,63)	(2,31)	(-10,3)	(59,15)	(13,93)	(18,1)	(10,2)	(-57,2)	(6,24)	(27,6)	(-56,2)	(12,3)	
L1D -12>	(29,4)	(13,11)	(6,2)	(9,5)	(18,1)	(-1,36)	(0,15)	(17,101)	(10,5)	(-5,3)	(2,13)	(3,1)	(12,3)	(1,19)	(7,7)	(4,17)	
L1D -11>	(8,2)	(-2,1)	(13,1)	(12,0)	(0,2)	(-4,0)	(-12,0)	(-5,5)	(3,8)	(7,1)	(2,7)	(18,0)	(-1,6)	(17,86)	(1,1)	(29,2)	
L1D -10>	(-5,72)	(1,17)	(3,1)	(11,1)	(8,1)	(14,20)	(12,8)	(13,0)	(5,4)	(2,24)	(7,1)	(4,26)	(-1,0)	(0,7)	(6,4)	(10,0)	
L1D -9>	(12,8)	(3,54)	(-14,12)	(10,52)	(9,116)	(-5,1)	(11,2)	(4,6)	(5,24)	(-16,1)	(0,18)	(6,6)	(2,61)	(1,8)	(7,1)	(14,5)	
L1D -8>	(7,20)	(-1,5)	(28,56)	(5,16)	(2,12)	(-4,3)	(12,17)	(9,79)	(-11,23)	(3,114)	(10,1)	(1,6)	(14,49)	(4,26)	(-5,27)	(0,3)	
L1D -7>	(6,6)	(4,12)	(8,38)	(-1,6)	(0,107)	(21,9)	(16,43)	(19,4)	(14,19)	(12,32)	(-5,46)	(3,5)	(15,3)	(1,34)	(5,7)	(-3,2)	
L1D -6>	(-6,0)	(6,0)	(8,0)	(7,3)	(-11,41)	(5,3)	(12,0)	(9,1)	(-1,0)	(2,0)	(1,70)	(-15,0)	(13,0)	(4,0)	(10,0)	(0,0)	
L1D -5>	(5,21)	(1,31)	(10,18)	(-14,17)	(-4,6)	(37,31)	(0,34)	(12,1)	(9,31)	(-1,82)	(-24,5)	(70,5)	(-9,7)	(13,47)	(8,121)	(14,68)	
L1D -4>	(2,114)	(-17,3)	(-8,53)	(-7,31)	(-19,20)	(-33,2)	(-2,12)	(-5,11)	(-3,6)	(6,4)	(8,19)	(4,2)	(11,10)	(-24,1)	(-16,1)	(-46,3)	
L1D -3>	(0,13)	(-17,9)	(32,3)	(1,95)	(3,18)	(7,2)	(-3,6)	(-10,0)	(-15,2)	(13,3)	(2,10)	(4,32)	(-13,7)	(24,35)	(14,10)	(12,41)	
L1D -2>	(-29,1)	(-11,17)	(14,10)	(-15,2)	(2,86)	(-12,2)	(-9,9)	(-8,34)	(4,6)	(1,40)	(-61,18)	(0,49)	(3,44)	(-37,4)	(9,17)	(31,5)	
L1D -1>	(-12,64)	(-32,15)	(0,92)	(-9,8)	(12,8)	(15,10)	(1,93)	(-8,3)	(14,50)	(19,9)	(3,11)	(24,1)	(2,21)	(-7,2)	(-22,29)	(-4,5)	
L1D 0>	(1,57)	(3,1)	(28,1)	(-9,2)	(0,118)	(-13,1)	(-1,3)	(4,1)	(-32,1)	(381,1)	(-10,2)	(-12,2)	(-126,1)	(-6,8)	(114,6)	(2,6)	
L1D 1>	(113,1)	(0,109)	(-6,1)	(13,2)	(-12,13)	(319,1)	(-1,21)	(2,27)	(15,1)	(1,52)	(-8,1)	(3,1)	(27,1)	(83,1)	(-13,5)	(11,1)	
L1D 2>	(4,25)	(0,39)	(-3,61)	(17,59)	(2,87)	(6,11)	(1,25)	(-10,14)	(3,14)	(-2,5)	(8,12)	(-13,12)	(-12,8)	(-48,1)	(-8,10)	(-1,65)	
L1D 3>	(-19,1)	(-2,40)	(0,96)	(-3,51)	(-91,6)	(1,105)	(10,49)	(-63,19)	(-5,18)	(3,43)	(2,123)	(9,43)	(-6,14)	(6,53)	(-18,28)	(-8,16)	
L1D 4>	(5,12)	(4,97)	(-44,8)	(-4,6)	(1,27)	(0,57)	(33,26)	(7,32)	(83,1)	(-8,29)	(6,3)	(8,36)	(2,37)	(20,2)	(-2,29)	(-11,8)	
L1D 5>	(6,9)	(12,1)	(7,18)	(3,41)	(-4,7)	(0,73)	(16,4)	(2,42)	(8,25)	(-3,106)	(-10,13)	(1,31)	(-2,44)	(-1,72)	(-5,21)	(-6,11)	
L1D 6>	(6,78)	(7,12)	(-8,29)	(-9,86)	(-7,2)	(1,90)	(14,12)	(3,6)	(-6,19)	(0,19)	(-13,41)	(-1,4)	(2,118)	(-4,60)	(-28,8)	(-5,30)	
L1D 7>	(-9,9)	(-14,94)	(4,1)	(246,1)	(11,3)	(-11,37)	(-8,88)	(0,6)	(-13,4)	(-6,25)	(-20,6)	(3,3)	(1,3)	(6,19)	(-1,2)	(-3,1)	
L1D 8>	(-8,6)	(-9,16)	(-18,17)	(-3,67)	(1,24)	(-20,4)	(5,18)	(9,6)	(4,74)	(-7,40)	(-2,39)	(-92,1)	(-12,36)	(2,35)	(28,25)	(-16,55)	
L1D 9>	(4,1)	(-11,1)	(-76,7)	(-25,1)	(-1,3)	(-4,1)	(1,39)	(-8,8)	(-6,9)	(0,8)	(-9,106)	(7,1)	(3,3)	(-3,4)	(6,2)	(-10,7)	
L1D 10>	(-24,31)	(-12,22)	(3,24)	(2,8)	(-2,7)	(32,1)	(-31,5)	(-10,60)	(-33,7)	(-58,6)	(-18,10)	(0,79)	(-26,10)	(-8,4)	(-11,43)	(1,114)	
L1D 11>	(-12,74)	(260,7)	(-4,74)	(-1,12)	(35,1)	(-26,3)	(3,8)	(0,8)	(-7,24)	(2,15)	(-8,39)	(-5,4)	(4,3)	(-11,68)	(-9,25)	(7,5)	
L1D 12>	(1,11)	(-12,5)	(-1,72)	(5,22)	(4,19)	(-2,1)	(0,3)	(-29,3)	(-3,2)	(-17,2)	(-27,6)	(-48,35)	(-9,1)	(-11,26)	(-8,27)	(-13,2)	
L1D 13>	(-7,1)	(-23,2)	(-53,13)	(-17,13)	(-18,12)	(-12,7)	(-1,19)	(1,0)	(-14,10)	(-6,1)	(0,1)	(-3,0)	(-2,0)	(-13,106)	(-5,0)	(-10,1)	
L1D 14>	(-4,7)	(-23,8)	(2,0)	(-57,7)	(-13,0)	(-12,0)	(-7,0)	(-2,2)	(-21,0)	(1,0)	(-8,0)	(-1,100)	(0,1)	(3,0)	(-17,0)	(-14,0)	
L1D 15>	(-13,8)	(-28,53)	(2,17)	(-43,6)	(-15,21)	(-9,25)	(0,6)	(-8,13)	(3,7)	(1,21)	(-1,97)	(6,51)	(13,9)	(7,8)	(-23,2)	(-14,21)	
L1D 16>	(-8,11)	(-27,71)	(7,6)	(0,2)	(-15,2)	(-24,2)	(-16,7)	(13,1)	(-132,1)	(-106,1)	(-232,1)	(-13,2)	(3,5)	(2,13)	(50,1)	(14,2)	
L1D 17>	(-10,42)	(-2,2)	(-1,1)	(-53,0)	(7,0)	(-15,5)	(0,107)	(-6,16)	(1,1)	(-23,1)	(-5,0)	(-12,0)	(2,5)	(-17,0)	(13,0)	(9,0)	
L1D 18>	(-16,55)	(-13,20)	(-3,27)	(2,65)	(-2,11)	(6,5)	(3,13)	(-6,12)	(13,18)	(7,11)	(-8,9)	(12,3)	(-19,17)	(-18,38)	(1,24)	(-24,1)	
L1D 19>	(-19,30)	(-1,42)	(-18,2)	(-5,29)	(1,44)	(7,12)	(5,28)	(-24,57)	(3,15)	(2,20)	(9,98)	(13,24)	(-6,5)	(15,7)	(6,31)	(28,27)	
L1D 20>	(3,12)	(-8,3)	(13,8)	(-1,3)	(2,26)	(-13,6)	(-9,6)	(-20,14)	(21,3)	(-7,85)	(-2,3)	(-17,3)	(7,4)	(9,8)	(0,5)	(4,5)	
L1D 21>	(-15,65)	(20,5)	(-13,6)	(3,23)	(7,11)	(-22,5)	(-26,2)	(-12,29)	(-2,4)	(-1,14)	(-14,23)	(13,10)	(-7,48)	(-33,14)	(-21,34)	(2,39)	
L1D 22>	(3,32)	(-25,1)	(7,21)	(1,11)	(-39,127)	(6,15)	(-13,30)	(-2,22)	(-12,32)	(27,11)	(-22,59)	(13,24)	(-8,18)	(-3,28)	(2,55)	(90,12)	
L1D 23>	(-22,14)	(-2,12)	(-1,12)	(3,40)	(5,6)	(7,39)	(1,23)	(24,23)	(-23,79)	(21,16)	(13,11)	(2,84)	(8,9)	(-7,11)	(-28,3)	(-13,44)	
L1D 24>	(-22,100)	(-13,62)	(-11,2)	(-23,6)	(-15,70)	(-25,5)	(1,3)	(-26,17)	(-20,10)	(0,1)	(-8,1)	(-24,1)	(-14,70)	(-27,62)	(15,62)	(3,1)	
L1D 25>	(3,3)	(7,8)	(-11,1)	(-15,16)	(1,2)	(2,15)	(8,2)	(-25,11)	(-24,2)	(-14,0)	(-7,93)	(-8,12)	(18,0)	(13,0)	(-13,2)	(-29,0)	
L1D 26>	(-74,32)	(-5,18)	(-26,117)	(0,21)	(3,43)	(7,28)	(1,65)	(13,26)	(15,105)	(-1,13)	(-30,1)	(-13,43)	(2,80)	(-4,35)	(-8,15)	(21,11)	
L1D 27>	(0,6)	(-2,4)	(-14,4)	(-26,20)	(3,14)	(13,8)	(7,6)	(-13,29)	(-17,4)	(-28,28)	(-15,85)	(2,24)	(-4,12)	(-1,6)	(-27,41)	(1,12)	
L1D 28>	(-8,4)	(-1,12)	(-54,41)	(7,4)	(5,4)	(-120,55)	(-17,81)	(13,2)	(1,9)	(0,12)	(-15,64)	(2,13)	(-13,7)	(-28,13)	(-12,13)	(3,4)	
L1D 29>	(2,71)	(1,13)	(-75,43)	(-10,9)	(-13,80)	(-29,36)	(-32,32)	(-1,110)	(3,17)	(0,5)	(-20,4)	(-8,7)	(-2,8)	(9,3)	(13,7)	(7,14)	
L1D 30>	(-13,20)	(7,12)	(-7,6)	(-30,87)	(1,6)	(-1,30)	(3,20)	(-33,47)	(-2,62)	(4,53)	(-14,18)	(2,58)	(-21,30)	(10,30)	(-31,4)	(-32,39)	
L1D 31>	(2,1)	(8,1)	(-32,65)	(-33,5)	(-34,0)	(0,8)	(-13,1)	(3,1)	(-1,9)	(15,0)	(7,0)	(-31,2)	(-2,1)	(1,2)	(-28,4)	(14,0)	
L1D 32>	(0,40)	(-33,37)	(5,8)	(7,45)	(3,38)	(-32,112)	(1,43)	(-13,60)	(-1,90)	(-35,2)	(-2,18)	(2,81)	(8,115)	(-23,32)	(-25,51)	(73,5)	
L1D 33>	(-31,4)	(-34,10)	(-28,24)	(0,58)	(1,20)	(-32,19)	(7,24)	(-33,50)	(-1,7)	(-8,18)	(-12,12)	(-2,14)	(3,15)	(2,70)	(-13,32)	(-27,38)	
L1D 34>	(3,29)	(-38,51)	(-26,116)	(1,9)	(-35,2)	(-13,51)	(7,13)	(-34,63)	(13,17)	(-41,20)	(-15,8)	(-8,16)	(0,17)	(-14,5)	(2,103)	(-2,12)	
L1D 35>	(36,112)	(-229,0)	(-462,1)	(71,0)	(37,1)	(-461,2)	(-390,1)	(-496,2)	(-106,0)	(-283,0)	(-425,0)	(-212,0)	(2,0)	(-177,0)	(-498,0)	(17,1)	
L1D 36>	(35,104)	(-213,1)	(-230,1)	(-35,4)	(-36,8)	(-461,2)	(1,1)	(-426,0)	(-18,4)	(-284,0)	(-106,0)	(-497,3)	(-177,0)	(-463,0)	(37,0)	(71,1)	
L1D 37>	(-36,1)	(-37,57)	(-34,13)	(-33,66)	(5,3)	(7,26)	(-26,36)	(-8,17)	(3,52)	(1,5)	(-13,40)	(-1,46)	(-2,23)	(13,9)	(10,87)	(2,43)	
L1D 38>	(-2,87)	(0,12)	(-13,42)	(-38,117)	(-35,4)	(-1,10)	(3,51)	(7,33)	(5,8)	(1,10)	(13,27)	(2,85)	(-12,2)	(-8,30)	(4,7)	(-45,15)	
L1D 39>	(5,6)	(7,35)	(-2,20)	(-1,10)	(-39,69)	(3,34)	(1,22)	(-8,24)	(-15,1)	(2,53)	(74,10)	(-14,7)	(-30,13)	(46,22)	(-13,28)	(-9,12)	
L1D 40>	(0,61)	(-20,39)	(-9,5)	(12,23)	(1,8)	(-40,53)	(-2,13)	(-31,10)	(-45,1)	(-29,12)	(-41,18)	(6,113)	(-27,26)	(2,40)	(-15,11)	(-33,17)	
L1D 41>	(40,98)	(-42,9)	(6,2)	(-33,81)	(-8,53)	(3,48)	(7,33)	(5,47)	(-41,74)	(1,31)	(2,82)	(-39,25)	(-13,33)	(-2,23)	(32,5)	(13,15)	
L1D 42>	(28,4)	(3,49)	(7,42)	(-42,90)	(5,10)	(-13,28)	(-45,94)	(13,9)	(-2,16)	(0,6)	(1,26)	(-8,13)	(-6,12)	(2,68)	(-14,4)	(-20,4)	
L1D 43>	(3,34)	(-44,33)	(5,12)	(7,30)	(1,13)	(-12,8)	(2,64)	(-15,24)	(-2,12)	(-13,26)	(-107,7)	(13,9)	(-43,69)	(-1,6)	(-8,19)	(12,0)	
L1D 44>	(5,4)	(-13,22)	(7,16)	(1,18)	(-8,14)	(3,30)	(-44,55)	(13,13)	(9,2)	(0,4)	(28,87)	(12,2)	(-41,43)	(2,51)	(6,0)	(-2,13)	
L1D 45>	(3,70)	(-257,13)	(-45,44)	(-15,7)	(-33,16)	(-7,16)	(-2,14)	(-8,52)	(-30,5)	(6,1)	(0,41)	(-13,22)	(13,9)	(-6,89)	(2,32)	(-5,27)	
L1D 46>	(1,2)	(8,24)	(9,3)	(-2,11)	(-13,25)	(13,6)	(-46,48)	(5,1)	(-1,4)	(-7,1)	(-6,118)	(2,17)	(3,25)	(0,4)	(-8,7)	(7,11)	
L1D 47>	(-130,26)	(-4,9)	(-7,8)	(-50,26)	(3,22)	(1,16)	(-13,18)	(-47,35)	(2,24)	(-63,1)	(7,42)	(-10,113)	(0,7)	(13,7)	(10,1)	(-8,6)	
L1D 48>	(-4,11)	(5,6)	(7,32)	(-8,41)	(3,34)	(-48,51)	(-9,27)	(1,5)	(-1,50)	(52,10)	(2,64)	(13,16)	(-2,15)	(-13,24)	(-11,68)	(-28,1)	
L1D 49>	(-13,29)	(10,1)	(3,45)	(7,24)	(5,5)	(-1,2)	(-8,15)	(-2,16)	(-47,10)	(-49,63)	(45,3)	(-12,64)	(0,7)	(13,15)	(2,78)	(-46,2)	
L1D 50>	(-107,7)	(3,23)	(5,5)	(-50,59)	(7,26)	(1,5)	(0,5)	(-2,16)	(9,2)	(13,15)	(-49,5)	(2,69)	(-13,20)	(16,1)	(-1,6)	(-8,4)	
L1D 51>	(7,34)	(3,45)	(5,5)	(-51,82)	(-9,4)	(-8,18)	(-2,19)	(13,8)	(0,2)	(2,93)	(4,2)	(-13,33)	(11,1)	(-14,7)	(-1,7)	(-12,2)	
L1D 52>	(2,46)	(-13,16)	(-22,1)	(-107,5)	(7,29)	(5,3)	(1,5)	(-8,6)	(3,34)	(-52,65)	(43,3)	(-2,13)	(-1,5)	(13,6)	(-48,2)	(-32,5)	
L1D 53>	(-59,6)	(2,86)	(0,1)	(-13,20)	(-49,13)	(3,30)	(5,5)	(7,33)	(1,30)	(-3,4)	(-53,66)	(-2,11)	(-1,6)	(13,9)	(-12,2)	(-8,9)	
L1D 54>	(-85,1)	(-14,8)	(6,2)	(3,59)	(5,9)	(1,10)	(7,44)	(-54,95)	(-8,22)	(-1,9)	(0,34)	(13,34)	(2,105)	(-13,46)	(-2,26)	(-12,4)	
L1D 55>	(-29,11)	(13,25)	(-54,1)	(2,107)	(7,50)	(1,5)	(-55,109)	(5,7)	(-13,47)	(3,44)	(-9,19)	(-12,5)	(-1,9)	(-8,16)	(-2,20)	(0,9)	
L1D 56>	(2,108)	(-13,63)	(-54,34)	(7,48)	(5,9)	(-56,109)	(-59,39)	(-14,6)	(1,11)	(0,12)	(-8,25)	(3,55)	(-2,25)	(-28,1)	(13,42)	(12,3)	
L1D 57>	(-2,28)	(-13,31)	(3,44)	(5,6)	(-1,7)	(1,11)	(7,30)	(-8,24)	(-12,1)	(-44,8)	(-57,93)	(13,17)	(9,4)	(2,94)	(-53,3)	(0,3)	
L1D 58>	(-2,29)	(-13,45)	(36,12)	(3,59)	(5,11)	(7,35)	(-8,28)	(-58,114)	(1,12)	(-54,8)	(-14,4)	(-12,4)	(13,24)	(2,95)	(-61,49)	(-46,13)	
L1D 59>	(0,85)	(-13,18)	(6,1)	(-8,13)	(5,3)	(-59,58)	(3,29)	(7,24)	(1,5)	(-12,4)	(-1,2)	(-2,7)	(13,11)	(12,1)	(2,63)	(4,0)	
L1D 60>	(-2,32)	(7,67)	(3,67)	(-60,126)	(5,6)	(-13,48)	(-14,1)	(-1,9)	(-12,4)	(1,15)	(13,19)	(12,3)	(-48,9)	(9,5)	(-8,30)	(2,101)	
L1D 61>	(-14,12)	(5,14)	(3,51)	(1,12)	(-2,32)	(6,2)	(7,61)	(-61,122)	(-1,3)	(0,8)	(-8,25)	(13,18)	(12,2)	(2,113)	(-13,47)	(9,2)	
L1D 62>	(-9,1)	(-14,4)	(-13,14)	(3,20)	(0,17)	(2,15)	(-59,8)	(-62,85)	(-2,44)	(7,13)	(13,4)	(1,24)	(6,1)	(-1,1)	(-8,2)	(-63,1)	
L1D 63>	(-13,41)	(13,9)	(-63,74)	(2,45)	(-8,9)	(216,77)	(0,16)	(-12,3)	(4,2)	(-14,4)	(-61,1)	(-2,20)	(-1,3)	(7,14)	(3,23)	(1,8)	
L1D 64>	(2,73)	(7,42)	(3,40)	(-2,22)	(1,25)	(5,7)	(-8,19)	(-57,17)	(-12,2)	(-64,125)	(9,2)	(-1,11)	(-14,8)	(-13,53)	(13,24)	(0,9)	
L1D 65>	(2,11)	(4,29)	(-12,6)	(1,26)	(7,94)	(-8,52)	(-1,14)	(-65,106)	(0,11)	(-2,30)	(-14,18)	(3,66)	(-13,64)	(8,1)	(6,92)	(9,3)	
L1D 66>	(0,33)	(7,77)	(1,59)	(-1,14)	(-2,33)	(-65,9)	(-12,11)	(-8,50)	(-13,81)	(6,53)	(10,1)	(-66,101)	(-50,23)	(9,8)	(-36,5)	(-14,10)	
L1D 67>	(6,5)	(-8,41)	(1,20)	(0,11)	(-1,10)	(-62,110)	(4,5)	(3,8)	(-2,50)	(-13,82)	(9,5)	(-67,69)	(-14,11)	(10,4)	(-80,1)	(-12,7)	
L1D 68>	(0,19)	(-8,44)	(1,20)	(-68,80)	(-1,21)	(-12,9)	(-13,79)	(-2,26)	(9,13)	(-113,2)	(-324,2)	(-14,3)	(2,2)	(-63,63)	(5,1)	(3,1)	
L1D 69>	(-64,67)	(-7,9)	(-8,42)	(-1,18)	(1,20)	(-69,67)	(0,21)	(-12,17)	(-13,100)	(-68,1)	(2,11)	(-14,6)	(-2,44)	(9,10)	(4,3)	(-47,45)	
L1D 70>	(-8,57)	(-70,70)	(0,9)	(1,23)	(-12,15)	(-13,93)	(6,6)	(4,9)	(37,41)	(-14,16)	(-149,1)	(2,8)	(-1,9)	(-2,2)	(-66,15)	(5,4)	
L1D 71>	(-35,6)	(35,52)	(1,30)	(-71,83)	(-177,3)	(0,12)	(-12,21)	(-1,12)	(4,4)	(3,2)	(-13,101)	(-14,15)	(-81,2)	(-8,40)	(-36,7)	(36,49)	
L1D 72>	(36,2)	(-88,3)	(-1,10)	(1,22)	(-12,24)	(-72,65)	(0,17)	(-8,34)	(-13,69)	(-14,10)	(-79,4)	(-20,1)	(-2,2)	(-75,1)	(-54,20)	(-77,2)	
L1D 73>	(35,2)	(-144,44)	(-12,9)	(-1,5)	(73,34)	(-73,71)	(1,20)	(0,11)	(-13,84)	(-14,10)	(-63,1)	(-8,32)	(3,3)	(2,2)	(4,4)	(-180,1)	
L1D 74>	(0,15)	(-66,10)	(-65,3)	(2,1)	(-1,10)	(1,22)	(-2,1)	(-13,74)	(3,24)	(4,8)	(6,9)	(-14,14)	(-74,17)	(14,2)	(-86,2)	(-12,6)	
L1D 75>	(-81,2)	(1,31)	(-1,10)	(0,14)	(-12,11)	(-13,90)	(2,3)	(-79,2)	(-14,15)	(-2,1)	(-82,2)	(58,2)	(48,1)	(-75,25)	(4,3)	(5,3)	
L1D 76>	(10,3)	(1,39)	(-76,27)	(-12,9)	(-1,14)	(-75,31)	(-13,78)	(-26,1)	(-14,15)	(0,15)	(4,4)	(5,2)	(2,3)	(11,1)	(-85,1)	(-2,1)	
L1D 77>	(1,25)	(-13,69)	(-76,1)	(4,2)	(0,8)	(6,1)	(-77,23)	(-14,15)	(-1,12)	(3,1)	(5,2)	(-2,2)	(1,0)	(1,0)	(1,0)	(1,0)	
L1D 78>	(-5,4)	(38,5)	(4,7)	(-2,4)	(-78,19)	(-14,15)	(-1,11)	(-114,1)	(-101,15)	(0,2)	(-113,2)	(-16,35)	(-77,8)	(-124,4)	(-121,2)	(-123,1)	
L1D 79>	(36,1)	(-45,2)	(-7,1)	(0,2)	(6,3)	(3,1)	(21,10)	(16,19)	(55,25)	(-84,1)	(4,1)	(-79,2)	(5,1)	(-83,2)	(-3,1)	(8,6)	
L1D 80>	(-62,2)	(4,5)	(26,48)	(3,5)	(0,1)	(2,4)	(-80,2)	(5,1)	(8,2)	(-3,3)	(-1,1)	(-87,1)	(35,1)	(36,1)	(-68,1)	(1,0)	
L1D 81>	(82,2)	(-111,2)	(-5,25)	(-81,2)	(4,2)	(2,4)	(6,2)	(-80,1)	(35,1)	(36,1)	(0,1)	(1,0)	(1,0)	(1,0)	(1,0)	(1,0)	
L1D 82>	(-88,1)	(-1,1)	(0,2)	(4,3)	(2,3)	(-5,25)	(-87,1)	(3,2)	(-82,3)	(5,3)	(-86,1)	(35,1)	(36,1)	(-7,1)	(47,1)	(-13,1)	
L1D 83>	(-83,3)	(35,1)	(36,1)	(0,1)	(-158,1)	(47,38)	(-19,1)	(-48,116)	(-28,14)	(18,1)	(1,2)	(-33,1)	(-13,43)	(1,0)	(1,0)	(1,0)	
L1D 84>	(-72,2)	(2,3)	(-28,20)	(35,1)	(36,1)	(1,0)	(1,0)	(1,0)	(1,0)	(1,0)	(1,0)	(1,0)	(1,0)	(1,0)	(1,0)	(1,0)	
L1D 85>	(-91,2)	(-89,2)	(2,3)	(5,24)	(7,1)	(1,1)	(35,1)	(36,1)	(0,1)	(-46,1)	(1,0)	(1,0)	(1,0)	(1,0)	(1,0)	(1,0)	
L1D 86>	(-8,6)	(-52,2)	(36,2)	(2,2)	(35,1)	(-86,1)	(1,1)	(-82,6)	(1,0)	(1,0)	(1,0)	(1,0)	(1,0)	(1,0)	(1,0)	(1,0)	
L1D 87>	(19,1)	(-11,1)	(6,122)	(-10,3)	(0,1)	(-8,1)	(-147,1)	(35,1)	(36,1)	(-91,1)	(-87,1)	(-83,3)	(1,0)	(1,0)	(1,0)	(1,0)	
L1D 88>	(-51,2)	(-75,53)	(-57,2)	(35,1)	(36,1)	(-76,2)	(1,0)	(1,0)	(1,0)	(1,0)	(1,0)	(1,0)	(1,0)	(1,0)	(1,0)	(1,0)	
L1D 89>	(-49,2)	(-48,2)	(35,1)	(36,2)	(-2,1)	(-9,20)	(-12,2)	(16,1)	(1,0)	(1,0)	(1,0)	(1,0)	(1,0)	(1,0)	(1,0)	(1,0)	
L1D 90>	(-26,3)	(-23,1)	(35,1)	(36,1)	(-90,116)	(-89,120)	(1,50)	(0,53)	(-183,16)	(-86,8)	(1,0)	(1,0)	(1,0)	(1,0)	(1,0)	(1,0)	
L1D 91>	(-2,2)	(-93,2)	(35,2)	(36,2)	(-90,4)	(-87,2)	(1,0)	(1,0)	(1,0)	(1,0)	(1,0)	(1,0)	(1,0)	(1,0)	(1,0)	(1,0)	
L1D 92>	(28,106)	(13,20)	(-104,1)	(35,1)	(36,1)	(1,0)	(1,0)	(1,0)	(1,0)	(1,0)	(1,0)	(1,0)	(1,0)	(1,0)	(1,0)	(1,0)	
L1D 93>	(-41,2)	(-19,1)	(35,3)	(36,3)	(-96,1)	(1,0)	(1,0)	(1,0)	(1,0)	(1,0)	(1,0)	(1,0)	(1,0)	(1,0)	(1,0)	(1,0)	
L1D 94>	(-45,25)	(35,3)	(36,3)	(-33,1)	(5,1)	(-90,3)	(1,0)	(1,0)	(1,0)	(1,0)	(1,0)	(1,0)	(1,0)	(1,0)	(1,0)	(1,0)	
L1D 95>	(52,2)	(35,3)	(36,3)	(-91,9)	(-89,2)	(1,0)	(1,0)	(1,0)	(1,0)	(1,0)	(1,0)	(1,0)	(1,0)	(1,0)	(1,0)	(1,0)	
L1D 96>	(16,1)	(-89,2)	(35,3)	(36,3)	(1,1)	(1,0)	(1,0)	(1,0)	(1,0)	(1,0)	(1,0)	(1,0)	(1,0)	(1,0)	(1,0)	(1,0)	
L1D 97>	(35,3)	(36,3)	(-28,1)	(1,0)	(1,0)	(1,0)	(1,0)	(1,0)	(1,0)	(1,0)	(1,0)	(1,0)	(1,0)	(1,0)	(1,0)	(1,0)	
L1D 98>	(0,1)	(-28,2)	(35,3)	(36,3)	(16,3)	(1,0)	(1,0)	(1,0)	(1,0)	(1,0)	(1,0)	(1,0)	(1,0)	(1,0)	(1,0)	(1,0)	
L1D 99>	(-1,1)	(35,3)	(36,3)	(-14,1)	(1,0)	(1,0)	(1,0)	(1,0)	(1,0)	(1,0)	(1,0)	(1,0)	(1,0)	(1,0)	(1,0)	(1,0)	
L1D 100>	(0,1)	(-49,1)	(-32,17)	(-101,23)	(-100,5)	(-27,2)	(-24,2)	(-20,40)	(71,1)	(36,3)	(16,3)	(-86,1)	(35,2)	(1,0)	(1,0)	(1,0)	
L1D 101>	(-102,19)	(-100,9)	(-101,23)	(1,3)	(70,2)	(-78,14)	(0,6)	(-119,2)	(-20,32)	(35,3)	(36,3)	(1,0)	(1,0)	(1,0)	(1,0)	(1,0)	
L1D 102>	(25,1)	(-103,23)	(-102,18)	(-21,4)	(-101,13)	(23,3)	(-78,77)	(35,3)	(36,3)	(-369,1)	(-45,1)	(1,1)	(2,1)	(1,0)	(1,0)	(1,0)	
L1D 103>	(-103,10)	(-102,7)	(-10,2)	(-23,2)	(35,4)	(36,3)	(1,0)	(1,0)	(1,0)	(1,0)	(1,0)	(1,0)	(1,0)	(1,0)	(1,0)	(1,0)	
L1D 104>	(-190,2)	(-52,2)	(3,2)	(35,3)	(36,3)	(1,0)	(1,0)	(1,0)	(1,0)	(1,0)	(1,0)	(1,0)	(1,0)	(1,0)	(1,0)	(1,0)	
L1D 105>	(-13,93)	(15,5)	(35,1)	(36,1)	(-53,0)	(10,0)	(1,0)	(-179,0)	(1,0)	(1,0)	(1,0)	(1,0)	(1,0)	(1,0)	(1,0)	(1,0)	
L1D 106>	(-190,2)	(-73,2)	(36,10)	(35,3)	(-177,1)	(178,1)	(25,1)	(1,0)	(1,0)	(1,0)	(1,0)	(1,0)	(1,0)	(1,0)	(1,0)	(1,0)	
L1D 107>	(3,3)	(0,2)	(73,2)	(44,1)	(35,10)	(36,3)	(8,4)	(2,1)	(-177,1)	(1,0)	(1,0)	(1,0)	(1,0)	(1,0)	(1,0)	(1,0)	
L1D 108>	(-72,2)	(-73,1)	(-26,1)	(35,3)	(36,2)	(7,21)	(1,0)	(1,0)	(1,0)	(1,0)	(1,0)	(1,0)	(1,0)	(1,0)	(1,0)	(1,0)	
L1D 109>	(-92,2)	(73,1)	(0,4)	(35,2)	(36,2)	(-22,1)	(-107,1)	(1,0)	(1,0)	(1,0)	(1,0)	(1,0)	(1,0)	(1,0)	(1,0)	(1,0)	
L1D 110>	(4,1)	(-58,1)	(-23,5)	(0,5)	(-116,1)	(-14,52)	(-59,2)	(35,2)	(36,2)	(-11,1)	(-22,25)	(1,1)	(1,0)	(1,0)	(1,0)	(1,0)	
L1D 111>	(-37,2)	(50,2)	(35,1)	(36,1)	(5,11)	(1,0)	(1,0)	(1,0)	(1,0)	(1,0)	(1,0)	(1,0)	(1,0)	(1,0)	(1,0)	(1,0)	
L1D 112>	(23,1)	(-105,2)	(35,1)	(36,1)	(-90,15)	(1,0)	(1,0)	(1,0)	(1,0)	(1,0)	(1,0)	(1,0)	(1,0)	(1,0)	(1,0)	(1,0)	
L1D 113>	(3,29)	(-74,1)	(-130,1)	(1,7)	(6,3)	(-113,111)	(35,1)	(36,1)	(-101,1)	(4,2)	(5,1)	(1,0)	(1,0)	(1,0)	(1,0)	(1,0)	
L1D 114>	(-12,0)	(-1,0)	(-114,127)	(-113,110)	(-90,0)	(-143,0)	(1,0)	(1,0)	(1,0)	(1,0)	(1,0)	(1,0)	(1,0)	(1,0)	(1,0)	(1,0)	
L1D 115>	(0,2)	(-132,1)	(35,1)	(36,1)	(-114,82)	(16,1)	(1,0)	(1,0)	(1,0)	(1,0)	(1,0)	(1,0)	(1,0)	(1,0)	(1,0)	(1,0)	
L1D 116>	(-38,4)	(-3,2)	(35,1)	(36,1)	(1,0)	(1,0)	(1,0)	(1,0)	(1,0)	(1,0)	(1,0)	(1,0)	(1,0)	(1,0)	(1,0)	(1,0)	
L1D 117>	(35,1)	(36,1)	(2,1)	(1,0)	(1,0)	(1,0)	(1,0)	(1,0)	(1,0)	(1,0)	(1,0)	(1,0)	(1,0)	(1,0)	(1,0)	(1,0)	
L1D 118>	(35,1)	(36,1)	(1,0)	(1,0)	(1,0)	(1,0)	(1,0)	(1,0)	(1,0)	(1,0)	(1,0)	(1,0)	(1,0)	(1,0)	(1,0)	(1,0)	
L1D 119>	(24,2)	(4,2)	(-148,2)	(35,1)	(36,1)	(-134,1)	(1,0)	(1,0)	(1,0)	(1,0)	(1,0)	(1,0)	(1,0)	(1,0)	(1,0)	(1,0)	
L1D 120>	(-15,75)	(35,1)	(36,1)	(1,0)	(1,0)	(1,0)	(1,0)	(1,0)	(1,0)	(1,0)	(1,0)	(1,0)	(1,0)	(1,0)	(1,0)	(1,0)	
L1D 121>	(-48,2)	(-117,2)	(35,1)	(-10,13)	(1,0)	(1,0)	(1,0)	(1,0)	(1,0)	(1,0)	(1,0)	(1,0)	(1,0)	(1,0)	(1,0)	(1,0)	
L1D 122>	(-65,1)	(-1,1)	(1,0)	(1,0)	(1,0)	(1,0)	(1,0)	(1,0)	(1,0)	(1,0)	(1,0)	(1,0)	(1,0)	(1,0)	(1,0)	(1,0)	
L1D 123>	(-5,118)	(13,31)	(2,1)	(-2,1)	(1,0)	(1,0)	(1,0)	(1,0)	(1,0)	(1,0)	(1,0)	(1,0)	(1,0)	(1,0)	(1,0)	(1,0)	
L1D 124>	(-124,52)	(16,1)	(1,0)	(1,0)	(1,0)	(1,0)	(1,0)	(1,0)	(1,0)	(1,0)	(1,0)	(1,0)	(1,0)	(1,0)	(1,0)	(1,0)	
L1D 125>	(-145,48)	(1,0)	(1,0)	(1,0)	(1,0)	(1,0)	(1,0)	(1,0)	(1,0)	(1,0)	(1,0)	(1,0)	(1,0)	(1,0)	(1,0)	(1,0)	
L1D 126>	(38,2)	(1,0)	(1,0)	(1,0)	(1,0)	(1,0)	(1,0)	(1,0)	(1,0)	(1,0)	(1,0)	(1,0)	(1,0)	(1,0)	(1,0)	(1,0)	
L1D 127>	(39,2)	(-1,1)	(1,0)	(1,0)	(1,0)	(1,0)	(1,0)	(1,0)	(1,0)	(1,0)	(1,0)	(1,0)	(1,0)	(1,0)	(1,0)	(1,0)	
L1D 128>	(0,2)	(58,1)	(1,1)	(1,0)	(1,0)	(1,0)	(1,0)	(1,0)	(1,0)	(1,0)	(1,0)	(1,0)	(1,0)	(1,0)	(1,0)	(1,0)	
L1D 129>	(21,2)	(-130,2)	(1,0)	(1,0)	(1,0)	(1,0)	(1,0)	(1,0)	(1,0)	(1,0)	(1,0)	(1,0)	(1,0)	(1,0)	(1,0)	(1,0)	
L1D 130>	(1,0)	(1,0)	(1,0)	(1,0)	(1,0)	(1,0)	(1,0)	(1,0)	(1,0)	(1,0)	(1,0)	(1,0)	(1,0)	(1,0)	(1,0)	(1,0)	
L1D 131>	(23,1)	(-105,1)	(-213,1)	(-132,1)	(6,1)	(1,0)	(1,0)	(1,0)	(1,0)	(1,0)	(1,0)	(1,0)	(1,0)	(1,0)	(1,0)	(1,0)	
L1D 132>	(3,2)	(1,0)	(1,0)	(1,0)	(1,0)	(1,0)	(1,0)	(1,0)	(1,0)	(1,0)	(1,0)	(1,0)	(1,0)	(1,0)	(1,0)	(1,0)	
L1D 133>	(1,0)	(1,0)	(1,0)	(1,0)	(1,0)	(1,0)	(1,0)	(1,0)	(1,0)	(1,0)	(1,0)	(1,0)	(1,0)	(1,0)	(1,0)	(1,0)	
L1D 134>	(2,1)	(1,0)	(1,0)	(1,0)	(1,0)	(1,0)	(1,0)	(1,0)	(1,0)	(1,0)	(1,0)	(1,0)	(1,0)	(1,0)	(1,0)	(1,0)	
L1D 135>	(-155,1)	(0,1)	(-1,1)	(1,0)	(1,0)	(1,0)	(1,0)	(1,0)	(1,0)	(1,0)	(1,0)	(1,0)	(1,0)	(1,0)	(1,0)	(1,0)	
L1D 136>	(41,2)	(16,1)	(1,0)	(1,0)	(1,0)	(1,0)	(1,0)	(1,0)	(1,0)	(1,0)	(1,0)	(1,0)	(1,0)	(1,0)	(1,0)	(1,0)	
L1D 137>	(20,2)	(1,0)	(1,0)	(1,0)	(1,0)	(1,0)	(1,0)	(1,0)	(1,0)	(1,0)	(1,0)	(1,0)	(1,0)	(1,0)	(1,0)	(1,0)	
L1D 138>	(1,2)	(1,0)	(1,0)	(1,0)	(1,0)	(1,0)	(1,0)	(1,0)	(1,0)	(1,0)	(1,0)	(1,0)	(1,0)	(1,0)	(1,0)	(1,0)	
L1D 139>	(1,0)	(1,0)	(1,0)	(1,0)	(1,0)	(1,0)	(1,0)	(1,0)	(1,0)	(1,0)	(1,0)	(1,0)	(1,0)	(1,0)	(1,0)	(1,0)	
L1D 140>	(76,1)	(1,3)	(18,1)	(1,0)	(1,0)	(1,0)	(1,0)	(1,0)	(1,0)	(1,0)	(1,0)	(1,0)	(1,0)	(1,0)	(1,0)	(1,0)	
L1D 141>	(-4,54)	(-50,1)	(1,0)	(1,0)	(1,0)	(1,0)	(1,0)	(1,0)	(1,0)	(1,0)	(1,0)	(1,0)	(1,0)	(1,0)	(1,0)	(1,0)	
L1D 142>	(-106,34)	(-107,32)	(36,7)	(35,8)	(-177,1)	(-213,1)	(1,1)	(71,1)	(107,1)	(1,0)	(1,0)	(1,0)	(1,0)	(1,0)	(1,0)	(1,0)	
L1D 143>	(0,4)	(1,0)	(1,0)	(1,0)	(1,0)	(1,0)	(1,0)	(1,0)	(1,0)	(1,0)	(1,0)	(1,0)	(1,0)	(1,0)	(1,0)	(1,0)	
L1D 144>	(1,0)	(1,0)	(1,0)	(1,0)	(1,0)	(1,0)	(1,0)	(1,0)	(1,0)	(1,0)	(1,0)	(1,0)	(1,0)	(1,0)	(1,0)	(1,0)	
L1D 145>	(-160,2)	(1,0)	(1,0)	(1,0)	(1,0)	(1,0)	(1,0)	(1,0)	(1,0)	(1,0)	(1,0)	(1,0)	(1,0)	(1,0)	(1,0)	(1,0)	
L1D 146>	(1,0)	(1,0)	(1,0)	(1,0)	(1,0)	(1,0)	(1,0)	(1,0)	(1,0)	(1,0)	(1,0)	(1,0)	(1,0)	(1,0)	(1,0)	(1,0)	
L1D 147>	(-21,2)	(-150,2)	(1,0)	(1,0)	(1,0)	(1,0)	(1,0)	(1,0)	(1,0)	(1,0)	(1,0)	(1,0)	(1,0)	(1,0)	(1,0)	(1,0)	
L1D 148>	(-152,2)	(-151,2)	(-150,2)	(-70,2)	(2,1)	(1,0)	(1,0)	(1,0)	(1,0)	(1,0)	(1,0)	(1,0)	(1,0)	(1,0)	(1,0)	(1,0)	
L1D 149>	(1,1)	(1,0)	(1,0)	(1,0)	(1,0)	(1,0)	(1,0)	(1,0)	(1,0)	(1,0)	(1,0)	(1,0)	(1,0)	(1,0)	(1,0)	(1,0)	
L1D 150>	(1,1)	(-76,1)	(1,0)	(1,0)	(1,0)	(1,0)	(1,0)	(1,0)	(1,0)	(1,0)	(1,0)	(1,0)	(1,0)	(1,0)	(1,0)	(1,0)	
L1D 151>	(-135,1)	(-136,2)	(-150,2)	(-147,2)	(-45,2)	(-42,1)	(1,0)	(1,0)	(1,0)	(1,0)	(1,0)	(1,0)	(1,0)	(1,0)	(1,0)	(1,0)	
L1D 152>	(1,2)	(102,1)	(1,0)	(1,0)	(1,0)	(1,0)	(1,0)	(1,0)	(1,0)	(1,0)	(1,0)	(1,0)	(1,0)	(1,0)	(1,0)	(1,0)	
L1D 153>	(34,2)	(-1,2)	(1,0)	(1,0)	(1,0)	(1,0)	(1,0)	(1,0)	(1,0)	(1,0)	(1,0)	(1,0)	(1,0)	(1,0)	(1,0)	(1,0)	
L1D 154>	(-2,1)	(1,0)	(1,0)	(1,0)	(1,0)	(1,0)	(1,0)	(1,0)	(1,0)	(1,0)	(1,0)	(1,0)	(1,0)	(1,0)	(1,0)	(1,0)	
L1D 155>	(1,0)	(1,0)	(1,0)	(1,0)	(1,0)	(1,0)	(1,0)	(1,0)	(1,0)	(1,0)	(1,0)	(1,0)	(1,0)	(1,0)	(1,0)	(1,0)	
L1D 156>	(1,0)	(1,0)	(1,0)	(1,0)	(1,0)	(1,0)	(1,0)	(1,0)	(1,0)	(1,0)	(1,0)	(1,0)	(1,0)	(1,0)	(1,0)	(1,0)	
L1D 157>	(-130,2)	(1,0)	(1,0)	(1,0)	(1,0)	(1,0)	(1,0)	(1,0)	(1,0)	(1,0)	(1,0)	(1,0)	(1,0)	(1,0)	(1,0)	(1,0)	
L1D 158>	(1,0)	(1,0)	(1,0)	(1,0)	(1,0)	(1,0)	(1,0)	(1,0)	(1,0)	(1,0)	(1,0)	(1,0)	(1,0)	(1,0)	(1,0)	(1,0)	
L1D 159>	(1,0)	(1,0)	(1,0)	(1,0)	(1,0)	(1,0)	(1,0)	(1,0)	(1,0)	(1,0)	(1,0)	(1,0)	(1,0)	(1,0)	(1,0)	(1,0)	
L1D 160>	(-302,1)	(1,0)	(1,0)	(1,0)	(1,0)	(1,0)	(1,0)	(1,0)	(1,0)	(1,0)	(1,0)	(1,0)	(1,0)	(1,0)	(1,0)	(1,0)	
L1D 161>	(1,0)	(1,0)	(1,0)	(1,0)	(1,0)	(1,0)	(1,0)	(1,0)	(1,0)	(1,0)	(1,0)	(1,0)	(1,0)	(1,0)	(1,0)	(1,0)	
[...]
L1D 462>	(1,5)	(1,0)	(1,0)	(1,0)	(1,0)	(1,0)	(1,0)	(1,0)	(1,0)	(1,0)	(1,0)	(1,0)	(1,0)	(1,0)	(1,0)	(1,0)	
L1D 463>	(1,0)	(1,0)	(1,0)	(1,0)	(1,0)	(1,0)	(1,0)	(1,0)	(1,0)	(1,0)	(1,0)	(1,0)	(1,0)	(1,0)	(1,0)	(1,0)	
L1D 464>	(1,0)	(1,0)	(1,0)	(1,0)	(1,0)	(1,0)	(1,0)	(1,0)	(1,0)	(1,0)	(1,0)	(1,0)	(1,0)	(1,0)	(1,0)	(1,0)	
L1D 465>	(1,0)	(1,0)	(1,0)	(1,0)	(1,0)	(1,0)	(1,0)	(1,0)	(1,0)	(1,0)	(1,0)	(1,0)	(1,0)	(1,0)	(1,0)	(1,0)	
L1D 466>	(1,0)	(1,0)	(1,0)	(1,0)	(1,0)	(1,0)	(1,0)	(1,0)	(1,0)	(1,0)	(1,0)	(1,0)	(1,0)	(1,0)	(1,0)	(1,0)	
L1D 467>	(1,0)	(1,0)	(1,0)	(1,0)	(1,0)	(1,0)	(1,0)	(1,0)	(1,0)	(1,0)	(1,0)	(1,0)	(1,0)	(1,0)	(1,0)	(1,0)	
L1D 468>	(1,0)	(1,0)	(1,0)	(1,0)	(1,0)	(1,0)	(1,0)	(1,0)	(1,0)	(1,0)	(1,0)	(1,0)	(1,0)	(1,0)	(1,0)	(1,0)	
L1D 469>	(5,1)	(1,0)	(1,0)	(1,0)	(1,0)	(1,0)	(1,0)	(1,0)	(1,0)	(1,0)	(1,0)	(1,0)	(1,0)	(1,0)	(1,0)	(1,0)	
L1D 470>	(1,0)	(1,0)	(1,0)	(1,0)	(1,0)	(1,0)	(1,0)	(1,0)	(1,0)	(1,0)	(1,0)	(1,0)	(1,0)	(1,0)	(1,0)	(1,0)	
L1D 471>	(1,0)	(1,0)	(1,0)	(1,0)	(1,0)	(1,0)	(1,0)	(1,0)	(1,0)	(1,0)	(1,0)	(1,0)	(1,0)	(1,0)	(1,0)	(1,0)	
L1D 472>	(1,0)	(1,0)	(1,0)	(1,0)	(1,0)	(1,0)	(1,0)	(1,0)	(1,0)	(1,0)	(1,0)	(1,0)	(1,0)	(1,0)	(1,0)	(1,0)	
L1D 473>	(1,0)	(1,0)	(1,0)	(1,0)	(1,0)	(1,0)	(1,0)	(1,0)	(1,0)	(1,0)	(1,0)	(1,0)	(1,0)	(1,0)	(1,0)	(1,0)	
L1D 474>	(1,0)	(1,0)	(1,0)	(1,0)	(1,0)	(1,0)	(1,0)	(1,0)	(1,0)	(1,0)	(1,0)	(1,0)	(1,0)	(1,0)	(1,0)	(1,0)	
L1D 475>	(1,0)	(1,0)	(1,0)	(1,0)	(1,0)	(1,0)	(1,0)	(1,0)	(1,0)	(1,0)	(1,0)	(1,0)	(1,0)	(1,0)	(1,0)	(1,0)	
L1D 476>	(1,0)	(1,0)	(1,0)	(1,0)	(1,0)	(1,0)	(1,0)	(1,0)	(1,0)	(1,0)	(1,0)	(1,0)	(1,0)	(1,0)	(1,0)	(1,0)	
L1D 477>	(1,0)	(1,0)	(1,0)	(1,0)	(1,0)	(1,0)	(1,0)	(1,0)	(1,0)	(1,0)	(1,0)	(1,0)	(1,0)	(1,0)	(1,0)	(1,0)	
L1D 478>	(1,0)	(1,0)	(1,0)	(1,0)	(1,0)	(1,0)	(1,0)	(1,0)	(1,0)	(1,0)	(1,0)	(1,0)	(1,0)	(1,0)	(1,0)	(1,0)	
L1D 479>	(1,0)	(1,0)	(1,0)	(1,0)	(1,0)	(1,0)	(1,0)	(1,0)	(1,0)	(1,0)	(1,0)	(1,0)	(1,0)	(1,0)	(1,0)	(1,0)	
L1D 480>	(1,0)	(1,0)	(1,0)	(1,0)	(1,0)	(1,0)	(1,0)	(1,0)	(1,0)	(1,0)	(1,0)	(1,0)	(1,0)	(1,0)	(1,0)	(1,0)	
L1D 481>	(1,0)	(1,0)	(1,0)	(1,0)	(1,0)	(1,0)	(1,0)	(1,0)	(1,0)	(1,0)	(1,0)	(1,0)	(1,0)	(1,0)	(1,0)	(1,0)	
L1D 482>	(1,0)	(1,0)	(1,0)	(1,0)	(1,0)	(1,0)	(1,0)	(1,0)	(1,0)	(1,0)	(1,0)	(1,0)	(1,0)	(1,0)	(1,0)	(1,0)	
L1D 483>	(1,0)	(1,0)	(1,0)	(1,0)	(1,0)	(1,0)	(1,0)	(1,0)	(1,0)	(1,0)	(1,0)	(1,0)	(1,0)	(1,0)	(1,0)	(1,0)	
L1D 484>	(1,0)	(1,0)	(1,0)	(1,0)	(1,0)	(1,0)	(1,0)	(1,0)	(1,0)	(1,0)	(1,0)	(1,0)	(1,0)	(1,0)	(1,0)	(1,0)	
L1D 485>	(1,0)	(1,0)	(1,0)	(1,0)	(1,0)	(1,0)	(1,0)	(1,0)	(1,0)	(1,0)	(1,0)	(1,0)	(1,0)	(1,0)	(1,0)	(1,0)	
L1D 486>	(1,0)	(1,0)	(1,0)	(1,0)	(1,0)	(1,0)	(1,0)	(1,0)	(1,0)	(1,0)	(1,0)	(1,0)	(1,0)	(1,0)	(1,0)	(1,0)	
L1D 487>	(1,0)	(1,0)	(1,0)	(1,0)	(1,0)	(1,0)	(1,0)	(1,0)	(1,0)	(1,0)	(1,0)	(1,0)	(1,0)	(1,0)	(1,0)	(1,0)	
L1D 488>	(1,0)	(1,0)	(1,0)	(1,0)	(1,0)	(1,0)	(1,0)	(1,0)	(1,0)	(1,0)	(1,0)	(1,0)	(1,0)	(1,0)	(1,0)	(1,0)	
L1D 489>	(1,0)	(1,0)	(1,0)	(1,0)	(1,0)	(1,0)	(1,0)	(1,0)	(1,0)	(1,0)	(1,0)	(1,0)	(1,0)	(1,0)	(1,0)	(1,0)	
L1D 490>	(1,0)	(1,0)	(1,0)	(1,0)	(1,0)	(1,0)	(1,0)	(1,0)	(1,0)	(1,0)	(1,0)	(1,0)	(1,0)	(1,0)	(1,0)	(1,0)	
L1D 491>	(1,0)	(1,0)	(1,0)	(1,0)	(1,0)	(1,0)	(1,0)	(1,0)	(1,0)	(1,0)	(1,0)	(1,0)	(1,0)	(1,0)	(1,0)	(1,0)	
L1D 492>	(1,0)	(1,0)	(1,0)	(1,0)	(1,0)	(1,0)	(1,0)	(1,0)	(1,0)	(1,0)	(1,0)	(1,0)	(1,0)	(1,0)	(1,0)	(1,0)	
L1D 493>	(1,0)	(1,0)	(1,0)	(1,0)	(1,0)	(1,0)	(1,0)	(1,0)	(1,0)	(1,0)	(1,0)	(1,0)	(1,0)	(1,0)	(1,0)	(1,0)	
L1D 494>	(1,0)	(1,0)	(1,0)	(1,0)	(1,0)	(1,0)	(1,0)	(1,0)	(1,0)	(1,0)	(1,0)	(1,0)	(1,0)	(1,0)	(1,0)	(1,0)	
L1D 495>	(1,0)	(1,0)	(1,0)	(1,0)	(1,0)	(1,0)	(1,0)	(1,0)	(1,0)	(1,0)	(1,0)	(1,0)	(1,0)	(1,0)	(1,0)	(1,0)	
L1D 496>	(1,0)	(1,0)	(1,0)	(1,0)	(1,0)	(1,0)	(1,0)	(1,0)	(1,0)	(1,0)	(1,0)	(1,0)	(1,0)	(1,0)	(1,0)	(1,0)	
L1D 497>	(1,0)	(1,0)	(1,0)	(1,0)	(1,0)	(1,0)	(1,0)	(1,0)	(1,0)	(1,0)	(1,0)	(1,0)	(1,0)	(1,0)	(1,0)	(1,0)	
L1D 498>	(0,1)	(1,0)	(1,0)	(1,0)	(1,0)	(1,0)	(1,0)	(1,0)	(1,0)	(1,0)	(1,0)	(1,0)	(1,0)	(1,0)	(1,0)	(1,0)	
L1D 499>	(0,1)	(1,1)	(1,0)	(1,0)	(1,0)	(1,0)	(1,0)	(1,0)	(1,0)	(1,0)	(1,0)	(1,0)	(1,0)	(1,0)	(1,0)	(1,0)	
L1D 500>	(1,0)	(1,0)	(1,0)	(1,0)	(1,0)	(1,0)	(1,0)	(1,0)	(1,0)	(1,0)	(1,0)	(1,0)	(1,0)	(1,0)	(1,0)	(1,0)	
L1D 501>	(1,0)	(1,0)	(1,0)	(1,0)	(1,0)	(1,0)	(1,0)	(1,0)	(1,0)	(1,0)	(1,0)	(1,0)	(1,0)	(1,0)	(1,0)	(1,0)	
L1D 502>	(1,0)	(1,0)	(1,0)	(1,0)	(1,0)	(1,0)	(1,0)	(1,0)	(1,0)	(1,0)	(1,0)	(1,0)	(1,0)	(1,0)	(1,0)	(1,0)	
L1D 503>	(1,0)	(1,0)	(1,0)	(1,0)	(1,0)	(1,0)	(1,0)	(1,0)	(1,0)	(1,0)	(1,0)	(1,0)	(1,0)	(1,0)	(1,0)	(1,0)	
L1D 504>	(1,0)	(1,0)	(1,0)	(1,0)	(1,0)	(1,0)	(1,0)	(1,0)	(1,0)	(1,0)	(1,0)	(1,0)	(1,0)	(1,0)	(1,0)	(1,0)	
L1D 505>	(1,0)	(1,0)	(1,0)	(1,0)	(1,0)	(1,0)	(1,0)	(1,0)	(1,0)	(1,0)	(1,0)	(1,0)	(1,0)	(1,0)	(1,0)	(1,0)	
L1D 506>	(1,0)	(1,0)	(1,0)	(1,0)	(1,0)	(1,0)	(1,0)	(1,0)	(1,0)	(1,0)	(1,0)	(1,0)	(1,0)	(1,0)	(1,0)	(1,0)	
L1D 507>	(1,0)	(1,0)	(1,0)	(1,0)	(1,0)	(1,0)	(1,0)	(1,0)	(1,0)	(1,0)	(1,0)	(1,0)	(1,0)	(1,0)	(1,0)	(1,0)	
L1D 508>	(1,0)	(1,0)	(1,0)	(1,0)	(1,0)	(1,0)	(1,0)	(1,0)	(1,0)	(1,0)	(1,0)	(1,0)	(1,0)	(1,0)	(1,0)	(1,0)	
L1D 509>	(1,0)	(1,0)	(1,0)	(1,0)	(1,0)	(1,0)	(1,0)	(1,0)	(1,0)	(1,0)	(1,0)	(1,0)	(1,0)	(1,0)	(1,0)	(1,0)	
L1D 510>	(1,0)	(1,0)	(1,0)	(1,0)	(1,0)	(1,0)	(1,0)	(1,0)	(1,0)	(1,0)	(1,0)	(1,0)	(1,0)	(1,0)	(1,0)	(1,0)	
L1D 511>	(1,0)	(1,0)	(1,0)	(1,0)	(1,0)	(1,0)	(1,0)	(1,0)	(1,0)	(1,0)	(1,0)	(1,0)	(1,0)	(1,0)	(1,0)	(1,0)	

L2C -64>	(1,211)	(2,31)	(0,12)	(6,2)	(-2,8)	(4,33)	(5,14)	(9,13)	(-1,8)	(10,5)	(16,4)	(-31,4)	(-17,2)	(3,2)	(-22,1)	(-57,1)	
L2C -63>	(1,138)	(2,2)	(4,4)	(3,1)	(1,0)	(1,0)	(1,0)	(1,0)	(1,0)	(1,0)	(1,0)	(1,0)	(1,0)	(1,0)	(1,0)	(1,0)	
L2C -62>	(40,1)	(4,1)	(1,10)	(2,1)	(12,1)	(16,1)	(-1,1)	(1,0)	(1,0)	(1,0)	(1,0)	(1,0)	(1,0)	(1,0)	(1,0)	(1,0)	
L2C -61>	(1,6)	(4,2)	(1,0)	(1,0)	(1,0)	(1,0)	(1,0)	(1,0)	(1,0)	(1,0)	(1,0)	(1,0)	(1,0)	(1,0)	(1,0)	(1,0)	
L2C -60>	(1,6)	(1,0)	(1,0)	(1,0)	(1,0)	(1,0)	(1,0)	(1,0)	(1,0)	(1,0)	(1,0)	(1,0)	(1,0)	(1,0)	(1,0)	(1,0)	
L2C -59>	(1,13)	(4,2)	(2,1)	(1,0)	(1,0)	(1,0)	(1,0)	(1,0)	(1,0)	(1,0)	(1,0)	(1,0)	(1,0)	(1,0)	(1,0)	(1,0)	
L2C -58>	(1,6)	(1,0)	(1,0)	(1,0)	(1,0)	(1,0)	(1,0)	(1,0)	(1,0)	(1,0)	(1,0)	(1,0)	(1,0)	(1,0)	(1,0)	(1,0)	
L2C -57>	(40,1)	(4,4)	(1,4)	(1,0)	(1,0)	(1,0)	(1,0)	(1,0)	(1,0)	(1,0)	(1,0)	(1,0)	(1,0)	(1,0)	(1,0)	(1,0)	
L2C -56>	(1,5)	(-3,1)	(1,0)	(1,0)	(1,0)	(1,0)	(1,0)	(1,0)	(1,0)	(1,0)	(1,0)	(1,0)	(1,0)	(1,0)	(1,0)	(1,0)	
L2C -55>	(1,16)	(4,2)	(5,1)	(1,0)	(1,0)	(1,0)	(1,0)	(1,0)	(1,0)	(1,0)	(1,0)	(1,0)	(1,0)	(1,0)	(1,0)	(1,0)	
L2C -54>	(1,1)	(1,0)	(1,0)	(1,0)	(1,0)	(1,0)	(1,0)	(1,0)	(1,0)	(1,0)	(1,0)	(1,0)	(1,0)	(1,0)	(1,0)	(1,0)	
L2C -53>	(9,1)	(4,1)	(1,5)	(1,0)	(1,0)	(1,0)	(1,0)	(1,0)	(1,0)	(1,0)	(1,0)	(1,0)	(1,0)	(1,0)	(1,0)	(1,0)	
L2C -52>	(1,5)	(40,1)	(5,2)	(39,1)	(1,0)	(1,0)	(1,0)	(1,0)	(1,0)	(1,0)	(1,0)	(1,0)	(1,0)	(1,0)	(1,0)	(1,0)	
L2C -51>	(4,1)	(1,3)	(1,0)	(1,0)	(1,0)	(1,0)	(1,0)	(1,0)	(1,0)	(1,0)	(1,0)	(1,0)	(1,0)	(1,0)	(1,0)	(1,0)	
L2C -50>	(1,2)	(1,0)	(1,0)	(1,0)	(1,0)	(1,0)	(1,0)	(1,0)	(1,0)	(1,0)	(1,0)	(1,0)	(1,0)	(1,0)	(1,0)	(1,0)	
L2C -49>	(19,1)	(1,2)	(13,1)	(1,0)	(1,0)	(1,0)	(1,0)	(1,0)	(1,0)	(1,0)	(1,0)	(1,0)	(1,0)	(1,0)	(1,0)	(1,0)	
L2C -48>	(40,5)	(1,3)	(9,2)	(1,0)	(1,0)	(1,0)	(1,0)	(1,0)	(1,0)	(1,0)	(1,0)	(1,0)	(1,0)	(1,0)	(1,0)	(1,0)	
L2C -47>	(1,1)	(-15,1)	(1,0)	(1,0)	(1,0)	(1,0)	(1,0)	(1,0)	(1,0)	(1,0)	(1,0)	(1,0)	(1,0)	(1,0)	(1,0)	(1,0)	
L2C -46>	(4,1)	(-1,1)	(36,1)	(1,1)	(1,0)	(1,0)	(1,0)	(1,0)	(1,0)	(1,0)	(1,0)	(1,0)	(1,0)	(1,0)	(1,0)	(1,0)	
L2C -45>	(49,1)	(1,4)	(36,1)	(-1,1)	(9,1)	(14,1)	(1,0)	(1,0)	(1,0)	(1,0)	(1,0)	(1,0)	(1,0)	(1,0)	(1,0)	(1,0)	
L2C -44>	(1,6)	(5,2)	(37,1)	(40,1)	(31,1)	(9,6)	(46,1)	(1,0)	(1,0)	(1,0)	(1,0)	(1,0)	(1,0)	(1,0)	(1,0)	(1,0)	
L2C -43>	(4,1)	(1,8)	(9,1)	(12,1)	(2,1)	(1,0)	(1,0)	(1,0)	(1,0)	(1,0)	(1,0)	(1,0)	(1,0)	(1,0)	(1,0)	(1,0)	
L2C -42>	(1,13)	(2,1)	(1,0)	(1,0)	(1,0)	(1,0)	(1,0)	(1,0)	(1,0)	(1,0)	(1,0)	(1,0)	(1,0)	(1,0)	(1,0)	(1,0)	
L2C -41>	(3,1)	(1,2)	(39,1)	(31,1)	(42,1)	(1,0)	(1,0)	(1,0)	(1,0)	(1,0)	(1,0)	(1,0)	(1,0)	(1,0)	(1,0)	(1,0)	
L2C -40>	(49,34)	(9,17)	(24,1)	(6,1)	(2,1)	(1,2)	(18,17)	(42,1)	(31,1)	(4,1)	(0,1)	(1,0)	(1,0)	(1,0)	(1,0)	(1,0)	
L2C -39>	(1,8)	(44,1)	(40,11)	(1,0)	(1,0)	(1,0)	(1,0)	(1,0)	(1,0)	(1,0)	(1,0)	(1,0)	(1,0)	(1,0)	(1,0)	(1,0)	
L2C -38>	(3,2)	(1,2)	(13,1)	(1,0)	(1,0)	(1,0)	(1,0)	(1,0)	(1,0)	(1,0)	(1,0)	(1,0)	(1,0)	(1,0)	(1,0)	(1,0)	
L2C -37>	(1,9)	(31,1)	(-1,1)	(1,0)	(1,0)	(1,0)	(1,0)	(1,0)	(1,0)	(1,0)	(1,0)	(1,0)	(1,0)	(1,0)	(1,0)	(1,0)	
L2C -36>	(4,1)	(-8,1)	(36,1)	(1,3)	(40,1)	(1,0)	(1,0)	(1,0)	(1,0)	(1,0)	(1,0)	(1,0)	(1,0)	(1,0)	(1,0)	(1,0)	
L2C -35>	(-7,1)	(-2,2)	(1,8)	(0,1)	(-1,3)	(4,2)	(8,2)	(9,7)	(39,1)	(-22,1)	(1,0)	(1,0)	(1,0)	(1,0)	(1,0)	(1,0)	
L2C -34>	(1,11)	(1,0)	(1,0)	(1,0)	(1,0)	(1,0)	(1,0)	(1,0)	(1,0)	(1,0)	(1,0)	(1,0)	(1,0)	(1,0)	(1,0)	(1,0)	
L2C -33>	(2,1)	(1,6)	(0,2)	(-4,3)	(-2,1)	(11,1)	(8,1)	(4,1)	(1,0)	(1,0)	(1,0)	(1,0)	(1,0)	(1,0)	(1,0)	(1,0)	
L2C -32>	(1,5)	(33,1)	(-4,1)	(19,1)	(5,1)	(26,1)	(1,0)	(1,0)	(1,0)	(1,0)	(1,0)	(1,0)	(1,0)	(1,0)	(1,0)	(1,0)	
L2C -31>	(40,171)	(-31,13)	(9,72)	(-22,11)	(49,4)	(1,2)	(-17,0)	(8,0)	(-29,0)	(-4,0)	(-10,0)	(-12,0)	(32,0)	(31,1)	(4,0)	(1,0)	
L2C -30>	(2,2)	(1,13)	(14,2)	(17,1)	(35,2)	(1,0)	(1,0)	(1,0)	(1,0)	(1,0)	(1,0)	(1,0)	(1,0)	(1,0)	(1,0)	(1,0)	
L2C -29>	(-1,3)	(1,9)	(30,1)	(12,1)	(19,1)	(16,1)	(-23,1)	(-5,1)	(3,1)	(1,0)	(1,0)	(1,0)	(1,0)	(1,0)	(1,0)	(1,0)	
L2C -28>	(1,4)	(14,2)	(2,3)	(-4,1)	(24,1)	(34,1)	(0,1)	(-1,1)	(9,1)	(29,1)	(1,0)	(1,0)	(1,0)	(1,0)	(1,0)	(1,0)	
L2C -27>	(1,14)	(15,2)	(0,1)	(4,3)	(10,1)	(5,1)	(36,1)	(24,1)	(19,1)	(6,1)	(22,1)	(28,1)	(27,1)	(2,1)	(1,0)	(1,0)	
L2C -26>	(1,7)	(4,6)	(8,1)	(10,1)	(9,3)	(-1,2)	(-37,1)	(-8,1)	(-29,1)	(1,0)	(1,0)	(1,0)	(1,0)	(1,0)	(1,0)	(1,0)	
L2C -25>	(1,11)	(-4,1)	(2,1)	(31,1)	(4,2)	(14,1)	(10,1)	(-8,1)	(19,1)	(1,0)	(1,0)	(1,0)	(1,0)	(1,0)	(1,0)	(1,0)	
L2C -24>	(2,1)	(1,9)	(-1,2)	(-5,1)	(28,1)	(-2,1)	(1,0)	(1,0)	(1,0)	(1,0)	(1,0)	(1,0)	(1,0)	(1,0)	(1,0)	(1,0)	
L2C -23>	(1,12)	(18,2)	(13,1)	(10,1)	(-27,1)	(5,1)	(24,1)	(2,2)	(-1,1)	(1,0)	(1,0)	(1,0)	(1,0)	(1,0)	(1,0)	(1,0)	
L2C -22>	(31,82)	(9,74)	(17,1)	(4,2)	(1,13)	(20,2)	(-22,11)	(40,7)	(-4,1)	(5,1)	(-31,4)	(27,1)	(-15,1)	(-35,2)	(26,1)	(-13,1)	
L2C -21>	(22,3)	(1,2)	(-22,1)	(18,1)	(1,0)	(1,0)	(1,0)	(1,0)	(1,0)	(1,0)	(1,0)	(1,0)	(1,0)	(1,0)	(1,0)	(1,0)	
L2C -20>	(13,1)	(2,2)	(4,2)	(1,5)	(-13,2)	(29,1)	(-2,2)	(22,1)	(-4,1)	(3,1)	(-5,1)	(1,0)	(1,0)	(1,0)	(1,0)	(1,0)	
L2C -19>	(1,6)	(-9,1)	(11,1)	(-12,1)	(2,3)	(4,2)	(-1,1)	(1,0)	(1,0)	(1,0)	(1,0)	(1,0)	(1,0)	(1,0)	(1,0)	(1,0)	
L2C -18>	(-5,1)	(1,4)	(19,3)	(4,1)	(9,1)	(3,1)	(23,1)	(1,0)	(1,0)	(1,0)	(1,0)	(1,0)	(1,0)	(1,0)	(1,0)	(1,0)	
L2C -17>	(-22,1)	(2,1)	(20,1)	(-14,1)	(16,1)	(-1,2)	(1,3)	(7,1)	(-2,1)	(-3,2)	(9,3)	(22,1)	(18,1)	(4,1)	(5,1)	(6,1)	
L2C -16>	(1,6)	(-7,1)	(-1,1)	(17,2)	(-11,1)	(2,1)	(1,0)	(1,0)	(1,0)	(1,0)	(1,0)	(1,0)	(1,0)	(1,0)	(1,0)	(1,0)	
L2C -15>	(-4,2)	(1,11)	(47,1)	(7,2)	(26,1)	(8,2)	(2,2)	(-1,1)	(4,2)	(-2,2)	(12,1)	(-8,2)	(-9,1)	(9,1)	(16,1)	(10,1)	
L2C -14>	(18,1)	(1,8)	(9,4)	(-2,1)	(12,1)	(-4,1)	(25,1)	(23,1)	(3,1)	(5,2)	(-1,1)	(13,2)	(2,2)	(1,0)	(1,0)	(1,0)	
L2C -13>	(1,15)	(-14,1)	(8,1)	(31,2)	(9,24)	(2,1)	(-20,1)	(22,5)	(-22,3)	(5,1)	(17,1)	(-8,1)	(-27,1)	(18,1)	(-31,2)	(-9,1)	
L2C -12>	(-9,3)	(1,12)	(13,1)	(14,3)	(-1,1)	(5,3)	(-13,1)	(18,1)	(6,1)	(41,1)	(47,1)	(-2,1)	(10,1)	(11,2)	(8,1)	(1,0)	
L2C -11>	(1,12)	(9,2)	(-25,1)	(24,1)	(20,1)	(-3,3)	(13,2)	(-31,2)	(4,3)	(2,2)	(-6,1)	(12,4)	(14,1)	(17,1)	(-15,1)	(31,1)	
L2C -10>	(19,1)	(1,37)	(8,1)	(2,3)	(-1,2)	(4,5)	(-15,1)	(-3,2)	(27,1)	(11,1)	(5,2)	(9,2)	(-14,1)	(-2,1)	(28,1)	(-8,1)	
L2C -9>	(5,2)	(1,48)	(-2,4)	(11,2)	(-1,2)	(18,16)	(-31,13)	(3,2)	(-8,1)	(10,2)	(2,2)	(8,1)	(-41,1)	(4,1)	(7,1)	(1,0)	
L2C -8>	(31,1)	(9,3)	(1,203)	(4,6)	(-2,2)	(11,1)	(-1,8)	(5,5)	(-3,1)	(22,3)	(3,1)	(13,2)	(2,2)	(-10,1)	(8,1)	(-31,2)	
L2C -7>	(5,4)	(-32,1)	(-17,1)	(9,1)	(-1,6)	(-2,3)	(3,10)	(1,89)	(2,9)	(-8,1)	(0,1)	(-29,1)	(32,1)	(6,1)	(-4,1)	(63,1)	
L2C -6>	(-2,2)	(-1,5)	(1,65)	(0,1)	(9,1)	(22,1)	(-11,1)	(-5,4)	(-8,1)	(7,4)	(-28,1)	(4,2)	(-7,2)	(2,1)	(10,2)	(15,1)	
L2C -5>	(0,6)	(1,43)	(-25,1)	(31,2)	(6,5)	(8,3)	(-1,4)	(9,5)	(13,4)	(7,6)	(10,1)	(-31,1)	(4,10)	(-3,2)	(-13,1)	(25,2)	
L2C -4>	(1,66)	(5,12)	(13,3)	(-2,3)	(3,3)	(0,4)	(-31,1)	(6,9)	(-56,2)	(12,1)	(-1,9)	(-8,2)	(-22,1)	(26,1)	(2,4)	(-9,1)	
L2C -3>	(-19,1)	(4,36)	(1,46)	(2,14)	(0,4)	(-3,8)	(-1,8)	(11,2)	(5,6)	(24,1)	(3,2)	(-9,2)	(7,3)	(-14,1)	(-31,1)	(6,1)	
L2C -2>	(1,91)	(-1,4)	(3,53)	(-39,1)	(0,11)	(21,1)	(-15,1)	(-4,4)	(-20,1)	(2,4)	(4,7)	(-7,2)	(13,2)	(-31,1)	(-30,1)	(-2,5)	
L2C -1>	(0,7)	(7,4)	(5,5)	(-4,2)	(-15,1)	(-5,10)	(2,99)	(4,11)	(-2,5)	(11,2)	(-1,34)	(12,6)	(-7,3)	(1,37)	(-13,1)	(3,10)	
L2C 0>	(1,42)	(-1,7)	(0,58)	(8,2)	(10,1)	(4,2)	(-2,3)	(57,1)	(36,2)	(-8,1)	(28,1)	(-4,1)	(-5,1)	(-15,1)	(1,0)	(1,0)	
L2C 1>	(1,254)	(4,3)	(-39,1)	(-2,2)	(-4,2)	(-9,3)	(6,1)	(-6,2)	(-10,4)	(-7,4)	(-5,3)	(-1,5)	(33,1)	(-8,23)	(2,2)	(-3,4)	
L2C 2>	(1,178)	(2,9)	(-1,23)	(-8,2)	(9,1)	(-6,1)	(12,1)	(3,3)	(-10,1)	(-3,2)	(-2,2)	(5,1)	(-7,1)	(31,1)	(-5,1)	(4,3)	
L2C 3>	(-1,28)	(1,202)	(-4,14)	(-6,5)	(3,12)	(2,2)	(-16,1)	(4,12)	(-10,2)	(-63,2)	(-5,9)	(-2,40)	(-33,1)	(11,2)	(22,1)	(5,7)	
L2C 4>	(4,46)	(5,133)	(-5,7)	(-39,7)	(-3,7)	(1,66)	(14,2)	(3,4)	(-35,3)	(-7,4)	(-2,9)	(-1,4)	(-48,2)	(-28,1)	(-8,4)	(2,1)	
L2C 5>	(-4,12)	(1,35)	(4,246)	(-22,7)	(9,4)	(2,4)	(-1,10)	(-7,3)	(-15,2)	(-3,5)	(-30,2)	(-29,2)	(-17,2)	(-2,2)	(5,1)	(-13,6)	
L2C 6>	(1,36)	(30,1)	(3,2)	(-1,5)	(-9,2)	(-4,3)	(4,3)	(-2,1)	(7,1)	(-60,1)	(-29,1)	(9,1)	(-5,1)	(-31,1)	(2,3)	(13,1)	
L2C 7>	(-1,2)	(1,24)	(-6,7)	(3,4)	(2,1)	(28,1)	(-9,1)	(26,1)	(5,1)	(4,3)	(-3,1)	(8,1)	(-43,1)	(25,1)	(10,1)	(1,0)	
L2C 8>	(-6,4)	(5,1)	(-27,1)	(3,1)	(1,24)	(-12,1)	(-25,1)	(-7,4)	(18,1)	(-2,4)	(-11,2)	(2,6)	(9,3)	(-4,1)	(10,4)	(-28,1)	
L2C 9>	(31,3)	(4,10)	(5,3)	(-13,10)	(-31,143)	(22,8)	(9,118)	(-22,39)	(-4,2)	(13,3)	(2,1)	(-27,3)	(1,9)	(18,5)	(-14,1)	(-8,1)	
L2C 10>	(-2,3)	(-1,4)	(2,1)	(-22,1)	(4,1)	(-7,1)	(1,18)	(-12,1)	(-17,1)	(9,1)	(5,2)	(-40,2)	(-8,2)	(-9,1)	(-23,1)	(8,1)	
L2C 11>	(-19,2)	(1,11)	(-2,1)	(-1,4)	(-3,1)	(-37,2)	(-5,1)	(-12,1)	(5,1)	(4,2)	(8,1)	(6,1)	(-20,2)	(-9,1)	(16,1)	(44,1)	
L2C 12>	(2,1)	(1,6)	(4,2)	(3,1)	(-1,3)	(44,1)	(-11,3)	(-13,1)	(13,1)	(-2,1)	(-19,1)	(15,1)	(33,1)	(21,1)	(1,0)	(1,0)	
L2C 13>	(3,1)	(-38,1)	(2,1)	(9,4)	(1,9)	(-12,2)	(-15,2)	(-14,1)	(-4,2)	(7,2)	(-1,6)	(4,4)	(-31,1)	(-44,2)	(-10,1)	(5,2)	
L2C 14>	(-15,1)	(9,2)	(1,6)	(-13,2)	(4,6)	(-24,2)	(3,1)	(-1,3)	(5,1)	(-10,1)	(2,1)	(1,0)	(1,0)	(1,0)	(1,0)	(1,0)	
L2C 15>	(-14,3)	(2,1)	(8,1)	(-26,1)	(9,2)	(-43,1)	(4,1)	(-2,1)	(1,2)	(3,1)	(1,0)	(1,0)	(1,0)	(1,0)	(1,0)	(1,0)	
L2C 16>	(-7,1)	(1,5)	(6,1)	(9,1)	(-21,1)	(-19,1)	(40,1)	(4,1)	(-6,1)	(-1,1)	(-14,1)	(-15,1)	(1,0)	(1,0)	(1,0)	(1,0)	
L2C 17>	(1,5)	(3,1)	(-15,1)	(9,1)	(-13,1)	(5,2)	(-16,1)	(-20,1)	(-2,1)	(1,0)	(1,0)	(1,0)	(1,0)	(1,0)	(1,0)	(1,0)	
L2C 18>	(-40,20)	(1,4)	(-2,2)	(-3,3)	(-6,2)	(-15,2)	(-9,30)	(4,4)	(-4,1)	(-63,2)	(-13,1)	(5,1)	(13,1)	(1,0)	(1,0)	(1,0)	
L2C 19>	(1,3)	(-23,1)	(-22,2)	(5,1)	(3,1)	(4,1)	(-10,1)	(2,1)	(-25,1)	(1,0)	(1,0)	(1,0)	(1,0)	(1,0)	(1,0)	(1,0)	
L2C 20>	(-19,1)	(1,6)	(5,1)	(-1,1)	(-16,1)	(1,0)	(1,0)	(1,0)	(1,0)	(1,0)	(1,0)	(1,0)	(1,0)	(1,0)	(1,0)	(1,0)	
L2C 21>	(-43,1)	(1,4)	(-5,1)	(-52,1)	(-14,1)	(-17,1)	(1,0)	(1,0)	(1,0)	(1,0)	(1,0)	(1,0)	(1,0)	(1,0)	(1,0)	(1,0)	
L2C 22>	(-21,1)	(-26,1)	(-49,1)	(1,3)	(-24,1)	(-16,1)	(9,15)	(4,4)	(-13,8)	(-44,2)	(-4,1)	(5,1)	(7,1)	(-35,1)	(-12,1)	(-10,1)	
L2C 23>	(8,1)	(-33,1)	(3,1)	(9,1)	(4,1)	(-1,1)	(7,1)	(-28,1)	(-22,1)	(1,0)	(1,0)	(1,0)	(1,0)	(1,0)	(1,0)	(1,0)	
L2C 24>	(-6,1)	(1,2)	(-16,2)	(9,1)	(-2,2)	(1,0)	(1,0)	(1,0)	(1,0)	(1,0)	(1,0)	(1,0)	(1,0)	(1,0)	(1,0)	(1,0)	
L2C 25>	(1,3)	(-2,1)	(-22,1)	(5,1)	(-24,1)	(-7,1)	(-13,1)	(2,1)	(-9,1)	(-27,1)	(-35,1)	(1,0)	(1,0)	(1,0)	(1,0)	(1,0)	
L2C 26>	(-41,1)	(-7,1)	(-12,2)	(1,2)	(-2,2)	(5,3)	(1,0)	(1,0)	(1,0)	(1,0)	(1,0)	(1,0)	(1,0)	(1,0)	(1,0)	(1,0)	
L2C 27>	(5,2)	(1,2)	(-28,2)	(9,1)	(4,1)	(3,2)	(-31,1)	(1,0)	(1,0)	(1,0)	(1,0)	(1,0)	(1,0)	(1,0)	(1,0)	(1,0)	
L2C 28>	(-7,1)	(-40,1)	(1,3)	(-35,2)	(-19,1)	(-31,1)	(-27,1)	(-26,1)	(1,0)	(1,0)	(1,0)	(1,0)	(1,0)	(1,0)	(1,0)	(1,0)	
L2C 29>	(-28,1)	(-31,1)	(1,2)	(-4,1)	(-30,1)	(-26,1)	(-12,1)	(1,0)	(1,0)	(1,0)	(1,0)	(1,0)	(1,0)	(1,0)	(1,0)	(1,0)	
L2C 30>	(1,3)	(-29,1)	(1,0)	(1,0)	(1,0)	(1,0)	(1,0)	(1,0)	(1,0)	(1,0)	(1,0)	(1,0)	(1,0)	(1,0)	(1,0)	(1,0)	
L2C 31>	(9,48)	(18,2)	(-22,46)	(1,2)	(4,4)	(-30,2)	(-24,2)	(-17,1)	(-33,1)	(-44,2)	(-3,1)	(-48,1)	(6,1)	(2,2)	(-20,1)	(-32,1)	
L2C 32>	(-35,1)	(1,3)	(-6,1)	(-31,1)	(1,0)	(1,0)	(1,0)	(1,0)	(1,0)	(1,0)	(1,0)	(1,0)	(1,0)	(1,0)	(1,0)	(1,0)	
L2C 33>	(4,1)	(2,1)	(1,1)	(-1,1)	(1,0)	(1,0)	(1,0)	(1,0)	(1,0)	(1,0)	(1,0)	(1,0)	(1,0)	(1,0)	(1,0)	(1,0)	
L2C 34>	(-33,2)	(-26,1)	(-35,1)	(1,0)	(1,0)	(1,0)	(1,0)	(1,0)	(1,0)	(1,0)	(1,0)	(1,0)	(1,0)	(1,0)	(1,0)	(1,0)	
L2C 35>	(-31,1)	(1,2)	(-33,1)	(-40,1)	(-35,1)	(-11,1)	(1,0)	(1,0)	(1,0)	(1,0)	(1,0)	(1,0)	(1,0)	(1,0)	(1,0)	(1,0)	
L2C 36>	(4,1)	(-31,1)	(-35,1)	(1,2)	(1,0)	(1,0)	(1,0)	(1,0)	(1,0)	(1,0)	(1,0)	(1,0)	(1,0)	(1,0)	(1,0)	(1,0)	
L2C 37>	(1,1)	(9,2)	(1,0)	(1,0)	(1,0)	(1,0)	(1,0)	(1,0)	(1,0)	(1,0)	(1,0)	(1,0)	(1,0)	(1,0)	(1,0)	(1,0)	
L2C 38>	(-31,1)	(1,4)	(-23,1)	(1,0)	(1,0)	(1,0)	(1,0)	(1,0)	(1,0)	(1,0)	(1,0)	(1,0)	(1,0)	(1,0)	(1,0)	(1,0)	
L2C 39>	(1,3)	(-19,2)	(-8,1)	(-5,1)	(1,0)	(1,0)	(1,0)	(1,0)	(1,0)	(1,0)	(1,0)	(1,0)	(1,0)	(1,0)	(1,0)	(1,0)	
L2C 40>	(-31,189)	(-42,0)	(5,0)	(9,0)	(4,0)	(1,0)	(1,0)	(1,0)	(1,0)	(1,0)	(1,0)	(1,0)	(1,0)	(1,0)	(1,0)	(1,0)	
L2C 41>	(-11,1)	(1,1)	(1,0)	(1,0)	(1,0)	(1,0)	(1,0)	(1,0)	(1,0)	(1,0)	(1,0)	(1,0)	(1,0)	(1,0)	(1,0)	(1,0)	
L2C 42>	(-37,1)	(-31,1)	(-4,1)	(1,0)	(1,0)	(1,0)	(1,0)	(1,0)	(1,0)	(1,0)	(1,0)	(1,0)	(1,0)	(1,0)	(1,0)	(1,0)	
L2C 43>	(-42,1)	(1,0)	(1,0)	(1,0)	(1,0)	(1,0)	(1,0)	(1,0)	(1,0)	(1,0)	(1,0)	(1,0)	(1,0)	(1,0)	(1,0)	(1,0)	
L2C 44>	(1,2)	(-4,1)	(-12,1)	(2,1)	(-42,1)	(1,0)	(1,0)	(1,0)	(1,0)	(1,0)	(1,0)	(1,0)	(1,0)	(1,0)	(1,0)	(1,0)	
L2C 45>	(1,0)	(1,0)	(1,0)	(1,0)	(1,0)	(1,0)	(1,0)	(1,0)	(1,0)	(1,0)	(1,0)	(1,0)	(1,0)	(1,0)	(1,0)	(1,0)	
L2C 46>	(-14,1)	(1,1)	(1,0)	(1,0)	(1,0)	(1,0)	(1,0)	(1,0)	(1,0)	(1,0)	(1,0)	(1,0)	(1,0)	(1,0)	(1,0)	(1,0)	
L2C 47>	(6,2)	(-5,1)	(-22,1)	(-47,1)	(1,0)	(1,0)	(1,0)	(1,0)	(1,0)	(1,0)	(1,0)	(1,0)	(1,0)	(1,0)	(1,0)	(1,0)	
L2C 48>	(1,0)	(1,0)	(1,0)	(1,0)	(1,0)	(1,0)	(1,0)	(1,0)	(1,0)	(1,0)	(1,0)	(1,0)	(1,0)	(1,0)	(1,0)	(1,0)	
L2C 49>	(-40,47)	(1,4)	(1,0)	(1,0)	(1,0)	(1,0)	(1,0)	(1,0)	(1,0)	(1,0)	(1,0)	(1,0)	(1,0)	(1,0)	(1,0)	(1,0)	
L2C 50>	(1,0)	(1,0)	(1,0)	(1,0)	(1,0)	(1,0)	(1,0)	(1,0)	(1,0)	(1,0)	(1,0)	(1,0)	(1,0)	(1,0)	(1,0)	(1,0)	
L2C 51>	(1,1)	(-4,1)	(1,0)	(1,0)	(1,0)	(1,0)	(1,0)	(1,0)	(1,0)	(1,0)	(1,0)	(1,0)	(1,0)	(1,0)	(1,0)	(1,0)	
L2C 52>	(1,1)	(1,0)	(1,0)	(1,0)	(1,0)	(1,0)	(1,0)	(1,0)	(1,0)	(1,0)	(1,0)	(1,0)	(1,0)	(1,0)	(1,0)	(1,0)	
L2C 53>	(1,0)	(1,0)	(1,0)	(1,0)	(1,0)	(1,0)	(1,0)	(1,0)	(1,0)	(1,0)	(1,0)	(1,0)	(1,0)	(1,0)	(1,0)	(1,0)	
L2C 54>	(1,0)	(1,0)	(1,0)	(1,0)	(1,0)	(1,0)	(1,0)	(1,0)	(1,0)	(1,0)	(1,0)	(1,0)	(1,0)	(1,0)	(1,0)	(1,0)	
L2C 55>	(-31,1)	(1,0)	(1,0)	(1,0)	(1,0)	(1,0)	(1,0)	(1,0)	(1,0)	(1,0)	(1,0)	(1,0)	(1,0)	(1,0)	(1,0)	(1,0)	
L2C 56>	(1,2)	(1,0)	(1,0)	(1,0)	(1,0)	(1,0)	(1,0)	(1,0)	(1,0)	(1,0)	(1,0)	(1,0)	(1,0)	(1,0)	(1,0)	(1,0)	
L2C 57>	(-4,1)	(1,2)	(1,0)	(1,0)	(1,0)	(1,0)	(1,0)	(1,0)	(1,0)	(1,0)	(1,0)	(1,0)	(1,0)	(1,0)	(1,0)	(1,0)	
L2C 58>	(1,2)	(1,0)	(1,0)	(1,0)	(1,0)	(1,0)	(1,0)	(1,0)	(1,0)	(1,0)	(1,0)	(1,0)	(1,0)	(1,0)	(1,0)	(1,0)	
L2C 59>	(1,2)	(1,0)	(1,0)	(1,0)	(1,0)	(1,0)	(1,0)	(1,0)	(1,0)	(1,0)	(1,0)	(1,0)	(1,0)	(1,0)	(1,0)	(1,0)	
L2C 60>	(-4,1)	(1,0)	(1,0)	(1,0)	(1,0)	(1,0)	(1,0)	(1,0)	(1,0)	(1,0)	(1,0)	(1,0)	(1,0)	(1,0)	(1,0)	(1,0)	
L2C 61>	(1,0)	(1,0)	(1,0)	(1,0)	(1,0)	(1,0)	(1,0)	(1,0)	(1,0)	(1,0)	(1,0)	(1,0)	(1,0)	(1,0)	(1,0)	(1,0)	
L2C 62>	(1,0)	(1,0)	(1,0)	(1,0)	(1,0)	(1,0)	(1,0)	(1,0)	(1,0)	(1,0)	(1,0)	(1,0)	(1,0)	(1,0)	(1,0)	(1,0)	
L2C 63>	(-6,1)	(1,0)	(1,0)	(1,0)	(1,0)	(1,0)	(1,0)	(1,0)	(1,0)	(1,0)	(1,0)	(1,0)	(1,0)	(1,0)	(1,0)	(1,0)	

DRAM Statistics
 CHANNEL 0
 RQ ROW_BUFFER_HIT:       5195  ROW_BUFFER_MISS:       2642
 DBUS_CONGESTED:       3683
 WQ ROW_BUFFER_HIT:          0  ROW_BUFFER_MISS:          0  FULL:          0

 AVG_CONGESTED_CYCLE: 6
