
*** ChampSim Multicore Out-of-Order Simulator ***

Warmup Instructions: 1000000
Simulation Instructions: 10000000
Number of CPUs: 1
LLC sets: 2048
LLC ways: 16
Off-chip DRAM Size: 4096 MB Channels: 1 Width: 64-bit Data Rate: 3200 MT/s

CPU 0 runs /home/virtualcse/Data-Prefetching/ChampSim/dpc3_traces/623.xalancbmk_s-325B.champsimtrace.xz
Ultra pref. initializing...
Ultra pref. initialized
Ultra pref. initializing...
Ultra pref. initialized

Warmup complete CPU 0 instructions: 1000002 cycles: 551342 (Simulation time: 0 hr 0 min 2 sec) 

Heartbeat CPU 0 instructions: 10000002 cycles: 13677433 heartbeat IPC: 0.731131 cumulative IPC: 0.685657 (Simulation time: 0 hr 0 min 21 sec) 
Finished CPU 0 instructions: 10000000 cycles: 14513062 cumulative IPC: 0.689034 (Simulation time: 0 hr 0 min 23 sec) 

CPU 0 Branch Prediction Accuracy: 99.2903% MPKI: 1.6622 Average ROB Occupancy at Mispredict: 144.239

ChampSim completed all CPUs

Region of Interest Statistics

CPU 0 cumulative IPC: 0.689034 instructions: 10000000 cycles: 14513062
L1D TOTAL     ACCESS:    6484167  HIT:    5660667  MISS:     823500
L1D LOAD      ACCESS:    1681712  HIT:    1348523  MISS:     333189
L1D RFO       ACCESS:     898534  HIT:     889232  MISS:       9302
L1D PREFETCH  ACCESS:    3903921  HIT:    3422912  MISS:     481009
L1D WRITEBACK ACCESS:          0  HIT:          0  MISS:          0
L1D PREFETCH  REQUESTED:   35226969  ISSUED:   28667733  USEFUL:      66949  USELESS:     457688
L1D AVERAGE MISS LATENCY: 29.9732 cycles
L1I TOTAL     ACCESS:     644900  HIT:     613675  MISS:      31225
L1I LOAD      ACCESS:     644900  HIT:     613675  MISS:      31225
L1I RFO       ACCESS:          0  HIT:          0  MISS:          0
L1I PREFETCH  ACCESS:          0  HIT:          0  MISS:          0
L1I WRITEBACK ACCESS:          0  HIT:          0  MISS:          0
L1I PREFETCH  REQUESTED:          0  ISSUED:          0  USEFUL:          0  USELESS:          0
L1I AVERAGE MISS LATENCY: 17.2196 cycles
L2C TOTAL     ACCESS:    3455882  HIT:    2211913  MISS:    1243969
L2C LOAD      ACCESS:     353366  HIT:     182726  MISS:     170640
L2C RFO       ACCESS:       9185  HIT:       4664  MISS:       4521
L2C PREFETCH  ACCESS:    3069370  HIT:    2000580  MISS:    1068790
L2C WRITEBACK ACCESS:      23961  HIT:      23943  MISS:         18
L2C PREFETCH  REQUESTED:   12342942  ISSUED:    6769223  USEFUL:      38517  USELESS:    1051556
L2C AVERAGE MISS LATENCY: 32.8902 cycles
LLC TOTAL     ACCESS:    1263059  HIT:    1242053  MISS:      21006
LLC LOAD      ACCESS:     168573  HIT:     167974  MISS:        599
LLC RFO       ACCESS:       4080  HIT:       1898  MISS:       2182
LLC PREFETCH  ACCESS:    1071297  HIT:    1053079  MISS:      18218
LLC WRITEBACK ACCESS:      19109  HIT:      19102  MISS:          7
LLC PREFETCH  REQUESTED:          0  ISSUED:          0  USEFUL:       2408  USELESS:       3249
LLC AVERAGE MISS LATENCY: 169.16 cycles
Major fault: 0 Minor fault: 1042

L1D -512>	(0,96)	(-2,2)	(5,21)	(107,3)	(54,2)	(-1,17)	(2,55)	(6,4)	(1,78)	(-4,4)	(4,3)	(-6,2)	(20,1)	(68,1)	(-8,3)	(-5,17)	
L1D -511>	(7,76)	(8,64)	(4,8)	(6,5)	(5,6)	(2,1)	(1,2)	(3,0)	(1,0)	(1,0)	(1,0)	(1,0)	(1,0)	(1,0)	(1,0)	(1,0)	
L1D -510>	(7,11)	(8,11)	(5,2)	(6,1)	(3,1)	(1,0)	(1,0)	(1,0)	(1,0)	(1,0)	(1,0)	(1,0)	(1,0)	(1,0)	(1,0)	(1,0)	
L1D -509>	(8,4)	(7,10)	(5,2)	(2,1)	(4,2)	(3,1)	(1,1)	(1,0)	(1,0)	(1,0)	(1,0)	(1,0)	(1,0)	(1,0)	(1,0)	(1,0)	
L1D -508>	(7,20)	(8,12)	(4,3)	(2,2)	(5,1)	(6,1)	(1,0)	(1,0)	(1,0)	(1,0)	(1,0)	(1,0)	(1,0)	(1,0)	(1,0)	(1,0)	
L1D -507>	(15,1)	(8,1)	(7,4)	(1,0)	(1,0)	(1,0)	(1,0)	(1,0)	(1,0)	(1,0)	(1,0)	(1,0)	(1,0)	(1,0)	(1,0)	(1,0)	
L1D -506>	(5,2)	(8,8)	(14,1)	(7,8)	(6,1)	(4,1)	(1,0)	(1,0)	(1,0)	(1,0)	(1,0)	(1,0)	(1,0)	(1,0)	(1,0)	(1,0)	
L1D -505>	(14,4)	(7,4)	(8,1)	(1,0)	(1,0)	(1,0)	(1,0)	(1,0)	(1,0)	(1,0)	(1,0)	(1,0)	(1,0)	(1,0)	(1,0)	(1,0)	
L1D -504>	(14,99)	(8,109)	(4,15)	(76,0)	(7,111)	(5,9)	(1,4)	(6,8)	(3,3)	(2,5)	(1,0)	(1,0)	(1,0)	(1,0)	(1,0)	(1,0)	
L1D -503>	(7,1)	(5,1)	(1,0)	(1,0)	(1,0)	(1,0)	(1,0)	(1,0)	(1,0)	(1,0)	(1,0)	(1,0)	(1,0)	(1,0)	(1,0)	(1,0)	
L1D -502>	(7,4)	(0,4)	(1,0)	(1,0)	(1,0)	(1,0)	(1,0)	(1,0)	(1,0)	(1,0)	(1,0)	(1,0)	(1,0)	(1,0)	(1,0)	(1,0)	
L1D -501>	(7,1)	(0,1)	(1,0)	(1,0)	(1,0)	(1,0)	(1,0)	(1,0)	(1,0)	(1,0)	(1,0)	(1,0)	(1,0)	(1,0)	(1,0)	(1,0)	
L1D -500>	(7,2)	(8,1)	(323,1)	(0,17)	(500,8)	(1,1)	(1,0)	(1,0)	(1,0)	(1,0)	(1,0)	(1,0)	(1,0)	(1,0)	(1,0)	(1,0)	
L1D -499>	(4,1)	(1,0)	(1,0)	(1,0)	(1,0)	(1,0)	(1,0)	(1,0)	(1,0)	(1,0)	(1,0)	(1,0)	(1,0)	(1,0)	(1,0)	(1,0)	
L1D -498>	(7,4)	(1,0)	(1,0)	(1,0)	(1,0)	(1,0)	(1,0)	(1,0)	(1,0)	(1,0)	(1,0)	(1,0)	(1,0)	(1,0)	(1,0)	(1,0)	
L1D -497>	(-5,1)	(8,1)	(0,1)	(1,0)	(1,0)	(1,0)	(1,0)	(1,0)	(1,0)	(1,0)	(1,0)	(1,0)	(1,0)	(1,0)	(1,0)	(1,0)	
L1D -496>	(7,5)	(0,1)	(496,9)	(5,2)	(4,1)	(8,1)	(1,0)	(1,0)	(1,0)	(1,0)	(1,0)	(1,0)	(1,0)	(1,0)	(1,0)	(1,0)	
L1D -495>	(7,1)	(1,0)	(1,0)	(1,0)	(1,0)	(1,0)	(1,0)	(1,0)	(1,0)	(1,0)	(1,0)	(1,0)	(1,0)	(1,0)	(1,0)	(1,0)	
L1D -494>	(7,3)	(5,1)	(2,1)	(1,0)	(1,0)	(1,0)	(1,0)	(1,0)	(1,0)	(1,0)	(1,0)	(1,0)	(1,0)	(1,0)	(1,0)	(1,0)	
L1D -493>	(7,1)	(1,0)	(1,0)	(1,0)	(1,0)	(1,0)	(1,0)	(1,0)	(1,0)	(1,0)	(1,0)	(1,0)	(1,0)	(1,0)	(1,0)	(1,0)	
L1D -492>	(0,1)	(8,1)	(4,1)	(2,1)	(1,0)	(1,0)	(1,0)	(1,0)	(1,0)	(1,0)	(1,0)	(1,0)	(1,0)	(1,0)	(1,0)	(1,0)	
L1D -491>	(7,1)	(1,0)	(1,0)	(1,0)	(1,0)	(1,0)	(1,0)	(1,0)	(1,0)	(1,0)	(1,0)	(1,0)	(1,0)	(1,0)	(1,0)	(1,0)	
L1D -490>	(8,2)	(6,1)	(7,1)	(1,0)	(1,0)	(1,0)	(1,0)	(1,0)	(1,0)	(1,0)	(1,0)	(1,0)	(1,0)	(1,0)	(1,0)	(1,0)	
L1D -489>	(8,1)	(2,1)	(1,0)	(1,0)	(1,0)	(1,0)	(1,0)	(1,0)	(1,0)	(1,0)	(1,0)	(1,0)	(1,0)	(1,0)	(1,0)	(1,0)	
L1D -488>	(6,1)	(7,4)	(8,3)	(1,0)	(1,0)	(1,0)	(1,0)	(1,0)	(1,0)	(1,0)	(1,0)	(1,0)	(1,0)	(1,0)	(1,0)	(1,0)	
L1D -487>	(0,1)	(7,1)	(4,1)	(1,0)	(1,0)	(1,0)	(1,0)	(1,0)	(1,0)	(1,0)	(1,0)	(1,0)	(1,0)	(1,0)	(1,0)	(1,0)	
L1D -486>	(0,1)	(8,2)	(5,1)	(6,1)	(1,0)	(1,0)	(1,0)	(1,0)	(1,0)	(1,0)	(1,0)	(1,0)	(1,0)	(1,0)	(1,0)	(1,0)	
L1D -485>	(0,1)	(1,1)	(485,1)	(1,0)	(1,0)	(1,0)	(1,0)	(1,0)	(1,0)	(1,0)	(1,0)	(1,0)	(1,0)	(1,0)	(1,0)	(1,0)	
L1D -484>	(7,2)	(8,1)	(1,0)	(1,0)	(1,0)	(1,0)	(1,0)	(1,0)	(1,0)	(1,0)	(1,0)	(1,0)	(1,0)	(1,0)	(1,0)	(1,0)	
L1D -483>	(8,1)	(1,0)	(1,0)	(1,0)	(1,0)	(1,0)	(1,0)	(1,0)	(1,0)	(1,0)	(1,0)	(1,0)	(1,0)	(1,0)	(1,0)	(1,0)	
L1D -482>	(7,2)	(8,1)	(4,1)	(1,0)	(1,0)	(1,0)	(1,0)	(1,0)	(1,0)	(1,0)	(1,0)	(1,0)	(1,0)	(1,0)	(1,0)	(1,0)	
L1D -481>	(7,1)	(1,0)	(1,0)	(1,0)	(1,0)	(1,0)	(1,0)	(1,0)	(1,0)	(1,0)	(1,0)	(1,0)	(1,0)	(1,0)	(1,0)	(1,0)	
L1D -480>	(8,2)	(1,1)	(7,5)	(5,1)	(1,0)	(1,0)	(1,0)	(1,0)	(1,0)	(1,0)	(1,0)	(1,0)	(1,0)	(1,0)	(1,0)	(1,0)	
L1D -479>	(8,2)	(1,0)	(1,0)	(1,0)	(1,0)	(1,0)	(1,0)	(1,0)	(1,0)	(1,0)	(1,0)	(1,0)	(1,0)	(1,0)	(1,0)	(1,0)	
L1D -478>	(7,3)	(2,1)	(1,0)	(1,0)	(1,0)	(1,0)	(1,0)	(1,0)	(1,0)	(1,0)	(1,0)	(1,0)	(1,0)	(1,0)	(1,0)	(1,0)	
L1D -477>	(-5,1)	(0,1)	(4,1)	(1,0)	(1,0)	(1,0)	(1,0)	(1,0)	(1,0)	(1,0)	(1,0)	(1,0)	(1,0)	(1,0)	(1,0)	(1,0)	
L1D -476>	(8,1)	(2,1)	(7,1)	(1,0)	(1,0)	(1,0)	(1,0)	(1,0)	(1,0)	(1,0)	(1,0)	(1,0)	(1,0)	(1,0)	(1,0)	(1,0)	
L1D -475>	(7,1)	(1,0)	(1,0)	(1,0)	(1,0)	(1,0)	(1,0)	(1,0)	(1,0)	(1,0)	(1,0)	(1,0)	(1,0)	(1,0)	(1,0)	(1,0)	
L1D -474>	(7,2)	(3,1)	(1,0)	(1,0)	(1,0)	(1,0)	(1,0)	(1,0)	(1,0)	(1,0)	(1,0)	(1,0)	(1,0)	(1,0)	(1,0)	(1,0)	
L1D -473>	(1,62)	(5,2)	(0,1)	(1,0)	(1,0)	(1,0)	(1,0)	(1,0)	(1,0)	(1,0)	(1,0)	(1,0)	(1,0)	(1,0)	(1,0)	(1,0)	
L1D -472>	(-1,1)	(2,1)	(7,5)	(76,1)	(5,1)	(8,2)	(1,0)	(1,0)	(1,0)	(1,0)	(1,0)	(1,0)	(1,0)	(1,0)	(1,0)	(1,0)	
L1D -471>	(7,1)	(4,1)	(1,0)	(1,0)	(1,0)	(1,0)	(1,0)	(1,0)	(1,0)	(1,0)	(1,0)	(1,0)	(1,0)	(1,0)	(1,0)	(1,0)	
L1D -470>	(7,2)	(477,2)	(8,2)	(1,0)	(1,0)	(1,0)	(1,0)	(1,0)	(1,0)	(1,0)	(1,0)	(1,0)	(1,0)	(1,0)	(1,0)	(1,0)	
L1D -469>	(477,94)	(2,3)	(7,0)	(1,0)	(1,0)	(1,0)	(1,0)	(1,0)	(1,0)	(1,0)	(1,0)	(1,0)	(1,0)	(1,0)	(1,0)	(1,0)	
L1D -468>	(6,1)	(8,2)	(1,0)	(1,0)	(1,0)	(1,0)	(1,0)	(1,0)	(1,0)	(1,0)	(1,0)	(1,0)	(1,0)	(1,0)	(1,0)	(1,0)	
L1D -467>	(0,2)	(8,2)	(1,0)	(1,0)	(1,0)	(1,0)	(1,0)	(1,0)	(1,0)	(1,0)	(1,0)	(1,0)	(1,0)	(1,0)	(1,0)	(1,0)	
L1D -466>	(1,106)	(0,2)	(7,3)	(8,1)	(1,0)	(1,0)	(1,0)	(1,0)	(1,0)	(1,0)	(1,0)	(1,0)	(1,0)	(1,0)	(1,0)	(1,0)	
L1D -465>	(-5,1)	(1,0)	(1,0)	(1,0)	(1,0)	(1,0)	(1,0)	(1,0)	(1,0)	(1,0)	(1,0)	(1,0)	(1,0)	(1,0)	(1,0)	(1,0)	
L1D -464>	(0,4)	(411,2)	(409,3)	(8,5)	(7,3)	(1,0)	(1,0)	(1,0)	(1,0)	(1,0)	(1,0)	(1,0)	(1,0)	(1,0)	(1,0)	(1,0)	
L1D -463>	(409,1)	(2,1)	(1,0)	(1,0)	(1,0)	(1,0)	(1,0)	(1,0)	(1,0)	(1,0)	(1,0)	(1,0)	(1,0)	(1,0)	(1,0)	(1,0)	
L1D -462>	(7,4)	(1,0)	(1,0)	(1,0)	(1,0)	(1,0)	(1,0)	(1,0)	(1,0)	(1,0)	(1,0)	(1,0)	(1,0)	(1,0)	(1,0)	(1,0)	
L1D -461>	(461,1)	(1,0)	(1,0)	(1,0)	(1,0)	(1,0)	(1,0)	(1,0)	(1,0)	(1,0)	(1,0)	(1,0)	(1,0)	(1,0)	(1,0)	(1,0)	
L1D -460>	(8,1)	(7,1)	(1,0)	(1,0)	(1,0)	(1,0)	(1,0)	(1,0)	(1,0)	(1,0)	(1,0)	(1,0)	(1,0)	(1,0)	(1,0)	(1,0)	
L1D -459>	(-21,1)	(104,1)	(1,0)	(1,0)	(1,0)	(1,0)	(1,0)	(1,0)	(1,0)	(1,0)	(1,0)	(1,0)	(1,0)	(1,0)	(1,0)	(1,0)	
L1D -458>	(7,3)	(8,1)	(1,0)	(1,0)	(1,0)	(1,0)	(1,0)	(1,0)	(1,0)	(1,0)	(1,0)	(1,0)	(1,0)	(1,0)	(1,0)	(1,0)	
L1D -457>	(1,0)	(1,0)	(1,0)	(1,0)	(1,0)	(1,0)	(1,0)	(1,0)	(1,0)	(1,0)	(1,0)	(1,0)	(1,0)	(1,0)	(1,0)	(1,0)	
L1D -456>	(8,6)	(5,1)	(7,5)	(6,1)	(1,0)	(1,0)	(1,0)	(1,0)	(1,0)	(1,0)	(1,0)	(1,0)	(1,0)	(1,0)	(1,0)	(1,0)	
L1D -455>	(0,110)	(446,0)	(409,0)	(1,0)	(1,0)	(1,0)	(1,0)	(1,0)	(1,0)	(1,0)	(1,0)	(1,0)	(1,0)	(1,0)	(1,0)	(1,0)	
L1D -454>	(411,1)	(84,9)	(7,3)	(-4,1)	(2,1)	(-1,1)	(8,1)	(1,0)	(1,0)	(1,0)	(1,0)	(1,0)	(1,0)	(1,0)	(1,0)	(1,0)	
L1D -453>	(409,2)	(84,1)	(1,0)	(1,0)	(1,0)	(1,0)	(1,0)	(1,0)	(1,0)	(1,0)	(1,0)	(1,0)	(1,0)	(1,0)	(1,0)	(1,0)	
L1D -452>	(84,87)	(-7,3)	(7,1)	(2,2)	(0,2)	(1,0)	(1,0)	(1,0)	(1,0)	(1,0)	(1,0)	(1,0)	(1,0)	(1,0)	(1,0)	(1,0)	
L1D -451>	(449,3)	(2,1)	(8,1)	(0,1)	(-1,1)	(1,0)	(1,0)	(1,0)	(1,0)	(1,0)	(1,0)	(1,0)	(1,0)	(1,0)	(1,0)	(1,0)	
L1D -450>	(-7,90)	(0,1)	(2,6)	(7,3)	(326,6)	(-6,0)	(8,1)	(1,0)	(1,0)	(1,0)	(1,0)	(1,0)	(1,0)	(1,0)	(1,0)	(1,0)	
L1D -449>	(8,101)	(449,100)	(1,3)	(1,0)	(1,0)	(1,0)	(1,0)	(1,0)	(1,0)	(1,0)	(1,0)	(1,0)	(1,0)	(1,0)	(1,0)	(1,0)	
L1D -448>	(2,2)	(326,89)	(7,2)	(-1,0)	(0,0)	(336,0)	(8,5)	(1,0)	(1,0)	(1,0)	(1,0)	(1,0)	(1,0)	(1,0)	(1,0)	(1,0)	
L1D -447>	(2,101)	(0,3)	(132,1)	(1,0)	(1,0)	(1,0)	(1,0)	(1,0)	(1,0)	(1,0)	(1,0)	(1,0)	(1,0)	(1,0)	(1,0)	(1,0)	
L1D -446>	(455,120)	(3,1)	(-1,1)	(2,1)	(1,0)	(1,0)	(1,0)	(1,0)	(1,0)	(1,0)	(1,0)	(1,0)	(1,0)	(1,0)	(1,0)	(1,0)	
L1D -445>	(-5,1)	(-1,2)	(1,0)	(1,0)	(1,0)	(1,0)	(1,0)	(1,0)	(1,0)	(1,0)	(1,0)	(1,0)	(1,0)	(1,0)	(1,0)	(1,0)	
L1D -444>	(0,14)	(50,2)	(411,1)	(8,1)	(1,1)	(1,0)	(1,0)	(1,0)	(1,0)	(1,0)	(1,0)	(1,0)	(1,0)	(1,0)	(1,0)	(1,0)	
L1D -443>	(50,74)	(409,2)	(0,1)	(-1,12)	(1,0)	(1,0)	(1,0)	(1,0)	(1,0)	(1,0)	(1,0)	(1,0)	(1,0)	(1,0)	(1,0)	(1,0)	
L1D -442>	(7,3)	(8,1)	(0,1)	(3,1)	(1,0)	(1,0)	(1,0)	(1,0)	(1,0)	(1,0)	(1,0)	(1,0)	(1,0)	(1,0)	(1,0)	(1,0)	
L1D -441>	(1,81)	(1,0)	(1,0)	(1,0)	(1,0)	(1,0)	(1,0)	(1,0)	(1,0)	(1,0)	(1,0)	(1,0)	(1,0)	(1,0)	(1,0)	(1,0)	
L1D -440>	(0,2)	(20,1)	(7,8)	(25,1)	(8,2)	(5,1)	(4,1)	(46,1)	(1,1)	(-1,5)	(2,2)	(1,0)	(1,0)	(1,0)	(1,0)	(1,0)	
L1D -439>	(1,0)	(1,0)	(1,0)	(1,0)	(1,0)	(1,0)	(1,0)	(1,0)	(1,0)	(1,0)	(1,0)	(1,0)	(1,0)	(1,0)	(1,0)	(1,0)	
L1D -438>	(7,4)	(8,1)	(1,0)	(1,0)	(1,0)	(1,0)	(1,0)	(1,0)	(1,0)	(1,0)	(1,0)	(1,0)	(1,0)	(1,0)	(1,0)	(1,0)	
L1D -437>	(-5,1)	(1,5)	(1,0)	(1,0)	(1,0)	(1,0)	(1,0)	(1,0)	(1,0)	(1,0)	(1,0)	(1,0)	(1,0)	(1,0)	(1,0)	(1,0)	
L1D -436>	(436,3)	(0,3)	(1,1)	(8,1)	(1,0)	(1,0)	(1,0)	(1,0)	(1,0)	(1,0)	(1,0)	(1,0)	(1,0)	(1,0)	(1,0)	(1,0)	
L1D -435>	(1,21)	(0,1)	(-5,1)	(409,1)	(5,1)	(1,0)	(1,0)	(1,0)	(1,0)	(1,0)	(1,0)	(1,0)	(1,0)	(1,0)	(1,0)	(1,0)	
L1D -434>	(434,3)	(0,3)	(411,2)	(443,1)	(2,1)	(8,2)	(50,5)	(7,3)	(5,1)	(1,0)	(1,0)	(1,0)	(1,0)	(1,0)	(1,0)	(1,0)	
L1D -433>	(409,1)	(405,2)	(1,0)	(1,0)	(1,0)	(1,0)	(1,0)	(1,0)	(1,0)	(1,0)	(1,0)	(1,0)	(1,0)	(1,0)	(1,0)	(1,0)	
L1D -432>	(6,1)	(1,1)	(7,4)	(8,3)	(2,2)	(61,1)	(5,1)	(1,0)	(1,0)	(1,0)	(1,0)	(1,0)	(1,0)	(1,0)	(1,0)	(1,0)	
L1D -431>	(440,1)	(15,6)	(1,0)	(1,0)	(1,0)	(1,0)	(1,0)	(1,0)	(1,0)	(1,0)	(1,0)	(1,0)	(1,0)	(1,0)	(1,0)	(1,0)	
L1D -430>	(0,2)	(8,2)	(28,1)	(50,5)	(7,1)	(15,30)	(2,1)	(5,1)	(1,0)	(1,0)	(1,0)	(1,0)	(1,0)	(1,0)	(1,0)	(1,0)	
L1D -429>	(9,1)	(50,3)	(0,1)	(-4,1)	(15,4)	(1,0)	(1,0)	(1,0)	(1,0)	(1,0)	(1,0)	(1,0)	(1,0)	(1,0)	(1,0)	(1,0)	
L1D -428>	(0,2)	(5,1)	(6,1)	(7,1)	(409,1)	(1,0)	(1,0)	(1,0)	(1,0)	(1,0)	(1,0)	(1,0)	(1,0)	(1,0)	(1,0)	(1,0)	
L1D -427>	(0,1)	(1,0)	(1,0)	(1,0)	(1,0)	(1,0)	(1,0)	(1,0)	(1,0)	(1,0)	(1,0)	(1,0)	(1,0)	(1,0)	(1,0)	(1,0)	
L1D -426>	(-11,1)	(2,1)	(7,1)	(1,0)	(1,0)	(1,0)	(1,0)	(1,0)	(1,0)	(1,0)	(1,0)	(1,0)	(1,0)	(1,0)	(1,0)	(1,0)	
L1D -425>	(-4,1)	(5,1)	(15,2)	(1,1)	(408,1)	(0,5)	(1,0)	(1,0)	(1,0)	(1,0)	(1,0)	(1,0)	(1,0)	(1,0)	(1,0)	(1,0)	
L1D -424>	(405,103)	(408,2)	(1,1)	(-4,2)	(411,0)	(7,3)	(0,0)	(8,4)	(4,0)	(1,0)	(1,0)	(1,0)	(1,0)	(1,0)	(1,0)	(1,0)	
L1D -423>	(408,99)	(20,0)	(2,2)	(409,0)	(0,0)	(1,0)	(1,0)	(1,0)	(1,0)	(1,0)	(1,0)	(1,0)	(1,0)	(1,0)	(1,0)	(1,0)	
L1D -422>	(0,1)	(7,3)	(-1,1)	(1,0)	(1,0)	(1,0)	(1,0)	(1,0)	(1,0)	(1,0)	(1,0)	(1,0)	(1,0)	(1,0)	(1,0)	(1,0)	
L1D -421>	(0,1)	(1,5)	(1,0)	(1,0)	(1,0)	(1,0)	(1,0)	(1,0)	(1,0)	(1,0)	(1,0)	(1,0)	(1,0)	(1,0)	(1,0)	(1,0)	
L1D -420>	(0,5)	(7,1)	(8,1)	(1,0)	(1,0)	(1,0)	(1,0)	(1,0)	(1,0)	(1,0)	(1,0)	(1,0)	(1,0)	(1,0)	(1,0)	(1,0)	
L1D -419>	(1,7)	(-9,1)	(1,0)	(1,0)	(1,0)	(1,0)	(1,0)	(1,0)	(1,0)	(1,0)	(1,0)	(1,0)	(1,0)	(1,0)	(1,0)	(1,0)	
L1D -418>	(1,1)	(7,2)	(8,1)	(1,0)	(1,0)	(1,0)	(1,0)	(1,0)	(1,0)	(1,0)	(1,0)	(1,0)	(1,0)	(1,0)	(1,0)	(1,0)	
L1D -417>	(1,101)	(-11,0)	(1,0)	(1,0)	(1,0)	(1,0)	(1,0)	(1,0)	(1,0)	(1,0)	(1,0)	(1,0)	(1,0)	(1,0)	(1,0)	(1,0)	
L1D -416>	(15,121)	(0,1)	(420,1)	(7,5)	(8,2)	(1,4)	(6,1)	(3,1)	(1,0)	(1,0)	(1,0)	(1,0)	(1,0)	(1,0)	(1,0)	(1,0)	
L1D -415>	(409,1)	(1,0)	(1,0)	(1,0)	(1,0)	(1,0)	(1,0)	(1,0)	(1,0)	(1,0)	(1,0)	(1,0)	(1,0)	(1,0)	(1,0)	(1,0)	
L1D -414>	(0,1)	(411,1)	(8,1)	(-9,1)	(7,2)	(1,0)	(1,0)	(1,0)	(1,0)	(1,0)	(1,0)	(1,0)	(1,0)	(1,0)	(1,0)	(1,0)	
L1D -413>	(2,1)	(1,0)	(1,0)	(1,0)	(1,0)	(1,0)	(1,0)	(1,0)	(1,0)	(1,0)	(1,0)	(1,0)	(1,0)	(1,0)	(1,0)	(1,0)	
L1D -412>	(8,1)	(7,1)	(2,1)	(1,0)	(1,0)	(1,0)	(1,0)	(1,0)	(1,0)	(1,0)	(1,0)	(1,0)	(1,0)	(1,0)	(1,0)	(1,0)	
L1D -411>	(0,1)	(-6,2)	(2,1)	(1,1)	(-4,1)	(1,0)	(1,0)	(1,0)	(1,0)	(1,0)	(1,0)	(1,0)	(1,0)	(1,0)	(1,0)	(1,0)	
L1D -410>	(2,104)	(-6,102)	(0,1)	(1,2)	(-4,1)	(7,1)	(-3,0)	(8,0)	(1,0)	(1,0)	(1,0)	(1,0)	(1,0)	(1,0)	(1,0)	(1,0)	
L1D -409>	(411,4)	(409,1)	(410,1)	(-5,4)	(-4,68)	(1,0)	(1,0)	(1,0)	(1,0)	(1,0)	(1,0)	(1,0)	(1,0)	(1,0)	(1,0)	(1,0)	
L1D -408>	(2,2)	(7,2)	(391,2)	(5,1)	(8,2)	(6,1)	(4,1)	(1,0)	(1,0)	(1,0)	(1,0)	(1,0)	(1,0)	(1,0)	(1,0)	(1,0)	
L1D -407>	(391,1)	(1,0)	(1,0)	(1,0)	(1,0)	(1,0)	(1,0)	(1,0)	(1,0)	(1,0)	(1,0)	(1,0)	(1,0)	(1,0)	(1,0)	(1,0)	
L1D -406>	(406,1)	(-5,3)	(1,1)	(8,1)	(7,2)	(1,0)	(1,0)	(1,0)	(1,0)	(1,0)	(1,0)	(1,0)	(1,0)	(1,0)	(1,0)	(1,0)	
L1D -405>	(1,2)	(0,1)	(8,1)	(1,0)	(1,0)	(1,0)	(1,0)	(1,0)	(1,0)	(1,0)	(1,0)	(1,0)	(1,0)	(1,0)	(1,0)	(1,0)	
L1D -404>	(1,125)	(5,45)	(64,1)	(6,1)	(8,1)	(1,0)	(1,0)	(1,0)	(1,0)	(1,0)	(1,0)	(1,0)	(1,0)	(1,0)	(1,0)	(1,0)	
L1D -403>	(0,2)	(1,0)	(1,0)	(1,0)	(1,0)	(1,0)	(1,0)	(1,0)	(1,0)	(1,0)	(1,0)	(1,0)	(1,0)	(1,0)	(1,0)	(1,0)	
L1D -402>	(389,1)	(7,1)	(8,1)	(1,0)	(1,0)	(1,0)	(1,0)	(1,0)	(1,0)	(1,0)	(1,0)	(1,0)	(1,0)	(1,0)	(1,0)	(1,0)	
L1D -401>	(0,1)	(1,0)	(1,0)	(1,0)	(1,0)	(1,0)	(1,0)	(1,0)	(1,0)	(1,0)	(1,0)	(1,0)	(1,0)	(1,0)	(1,0)	(1,0)	
L1D -400>	(0,2)	(7,4)	(399,1)	(8,3)	(2,1)	(4,1)	(1,0)	(1,0)	(1,0)	(1,0)	(1,0)	(1,0)	(1,0)	(1,0)	(1,0)	(1,0)	
L1D -399>	(-16,1)	(1,1)	(0,1)	(-15,1)	(398,1)	(1,0)	(1,0)	(1,0)	(1,0)	(1,0)	(1,0)	(1,0)	(1,0)	(1,0)	(1,0)	(1,0)	
L1D -398>	(7,2)	(8,1)	(1,0)	(1,0)	(1,0)	(1,0)	(1,0)	(1,0)	(1,0)	(1,0)	(1,0)	(1,0)	(1,0)	(1,0)	(1,0)	(1,0)	
L1D -397>	(-5,1)	(1,0)	(1,0)	(1,0)	(1,0)	(1,0)	(1,0)	(1,0)	(1,0)	(1,0)	(1,0)	(1,0)	(1,0)	(1,0)	(1,0)	(1,0)	
L1D -396>	(5,107)	(7,0)	(8,0)	(1,0)	(1,0)	(1,0)	(1,0)	(1,0)	(1,0)	(1,0)	(1,0)	(1,0)	(1,0)	(1,0)	(1,0)	(1,0)	
L1D -395>	(9,1)	(-3,1)	(1,0)	(1,0)	(1,0)	(1,0)	(1,0)	(1,0)	(1,0)	(1,0)	(1,0)	(1,0)	(1,0)	(1,0)	(1,0)	(1,0)	
L1D -394>	(7,3)	(8,1)	(110,1)	(1,0)	(1,0)	(1,0)	(1,0)	(1,0)	(1,0)	(1,0)	(1,0)	(1,0)	(1,0)	(1,0)	(1,0)	(1,0)	
L1D -393>	(0,1)	(-10,1)	(1,0)	(1,0)	(1,0)	(1,0)	(1,0)	(1,0)	(1,0)	(1,0)	(1,0)	(1,0)	(1,0)	(1,0)	(1,0)	(1,0)	
L1D -392>	(389,1)	(8,4)	(7,3)	(1,0)	(1,0)	(1,0)	(1,0)	(1,0)	(1,0)	(1,0)	(1,0)	(1,0)	(1,0)	(1,0)	(1,0)	(1,0)	
L1D -391>	(0,1)	(1,0)	(1,0)	(1,0)	(1,0)	(1,0)	(1,0)	(1,0)	(1,0)	(1,0)	(1,0)	(1,0)	(1,0)	(1,0)	(1,0)	(1,0)	
L1D -390>	(0,1)	(8,2)	(4,1)	(1,0)	(1,0)	(1,0)	(1,0)	(1,0)	(1,0)	(1,0)	(1,0)	(1,0)	(1,0)	(1,0)	(1,0)	(1,0)	
L1D -389>	(0,8)	(387,1)	(390,1)	(1,0)	(1,0)	(1,0)	(1,0)	(1,0)	(1,0)	(1,0)	(1,0)	(1,0)	(1,0)	(1,0)	(1,0)	(1,0)	
L1D -388>	(0,4)	(4,1)	(7,1)	(1,0)	(1,0)	(1,0)	(1,0)	(1,0)	(1,0)	(1,0)	(1,0)	(1,0)	(1,0)	(1,0)	(1,0)	(1,0)	
L1D -387>	(387,5)	(0,3)	(388,1)	(1,0)	(1,0)	(1,0)	(1,0)	(1,0)	(1,0)	(1,0)	(1,0)	(1,0)	(1,0)	(1,0)	(1,0)	(1,0)	
L1D -386>	(7,2)	(370,3)	(1,0)	(1,0)	(1,0)	(1,0)	(1,0)	(1,0)	(1,0)	(1,0)	(1,0)	(1,0)	(1,0)	(1,0)	(1,0)	(1,0)	
L1D -385>	(370,5)	(424,1)	(1,0)	(1,0)	(1,0)	(1,0)	(1,0)	(1,0)	(1,0)	(1,0)	(1,0)	(1,0)	(1,0)	(1,0)	(1,0)	(1,0)	
L1D -384>	(7,9)	(-9,1)	(1,0)	(1,0)	(1,0)	(1,0)	(1,0)	(1,0)	(1,0)	(1,0)	(1,0)	(1,0)	(1,0)	(1,0)	(1,0)	(1,0)	
L1D -383>	(5,1)	(1,0)	(1,0)	(1,0)	(1,0)	(1,0)	(1,0)	(1,0)	(1,0)	(1,0)	(1,0)	(1,0)	(1,0)	(1,0)	(1,0)	(1,0)	
L1D -382>	(8,1)	(7,3)	(0,1)	(382,2)	(74,1)	(1,0)	(1,0)	(1,0)	(1,0)	(1,0)	(1,0)	(1,0)	(1,0)	(1,0)	(1,0)	(1,0)	
L1D -381>	(41,120)	(2,99)	(-9,0)	(1,0)	(1,0)	(1,0)	(1,0)	(1,0)	(1,0)	(1,0)	(1,0)	(1,0)	(1,0)	(1,0)	(1,0)	(1,0)	
L1D -380>	(0,1)	(7,1)	(1,2)	(1,0)	(1,0)	(1,0)	(1,0)	(1,0)	(1,0)	(1,0)	(1,0)	(1,0)	(1,0)	(1,0)	(1,0)	(1,0)	
L1D -379>	(15,1)	(-10,1)	(1,0)	(1,0)	(1,0)	(1,0)	(1,0)	(1,0)	(1,0)	(1,0)	(1,0)	(1,0)	(1,0)	(1,0)	(1,0)	(1,0)	
L1D -378>	(0,1)	(7,5)	(1,0)	(1,0)	(1,0)	(1,0)	(1,0)	(1,0)	(1,0)	(1,0)	(1,0)	(1,0)	(1,0)	(1,0)	(1,0)	(1,0)	
L1D -377>	(1,0)	(1,0)	(1,0)	(1,0)	(1,0)	(1,0)	(1,0)	(1,0)	(1,0)	(1,0)	(1,0)	(1,0)	(1,0)	(1,0)	(1,0)	(1,0)	
L1D -376>	(7,4)	(8,1)	(1,0)	(1,0)	(1,0)	(1,0)	(1,0)	(1,0)	(1,0)	(1,0)	(1,0)	(1,0)	(1,0)	(1,0)	(1,0)	(1,0)	
L1D -375>	(1,0)	(1,0)	(1,0)	(1,0)	(1,0)	(1,0)	(1,0)	(1,0)	(1,0)	(1,0)	(1,0)	(1,0)	(1,0)	(1,0)	(1,0)	(1,0)	
L1D -374>	(8,2)	(7,1)	(6,1)	(-5,1)	(1,0)	(1,0)	(1,0)	(1,0)	(1,0)	(1,0)	(1,0)	(1,0)	(1,0)	(1,0)	(1,0)	(1,0)	
L1D -373>	(62,1)	(1,0)	(1,0)	(1,0)	(1,0)	(1,0)	(1,0)	(1,0)	(1,0)	(1,0)	(1,0)	(1,0)	(1,0)	(1,0)	(1,0)	(1,0)	
L1D -372>	(8,1)	(6,1)	(1,0)	(1,0)	(1,0)	(1,0)	(1,0)	(1,0)	(1,0)	(1,0)	(1,0)	(1,0)	(1,0)	(1,0)	(1,0)	(1,0)	
L1D -371>	(1,1)	(-128,1)	(6,1)	(0,1)	(1,0)	(1,0)	(1,0)	(1,0)	(1,0)	(1,0)	(1,0)	(1,0)	(1,0)	(1,0)	(1,0)	(1,0)	
L1D -370>	(0,2)	(5,1)	(34,1)	(8,1)	(-3,1)	(7,1)	(370,1)	(1,0)	(1,0)	(1,0)	(1,0)	(1,0)	(1,0)	(1,0)	(1,0)	(1,0)	
L1D -369>	(320,1)	(330,1)	(9,1)	(1,1)	(1,0)	(1,0)	(1,0)	(1,0)	(1,0)	(1,0)	(1,0)	(1,0)	(1,0)	(1,0)	(1,0)	(1,0)	
L1D -368>	(367,86)	(2,5)	(7,3)	(-84,0)	(8,0)	(5,0)	(0,0)	(368,0)	(1,0)	(1,0)	(1,0)	(1,0)	(1,0)	(1,0)	(1,0)	(1,0)	
L1D -367>	(369,10)	(367,4)	(2,1)	(-3,1)	(0,1)	(1,0)	(1,0)	(1,0)	(1,0)	(1,0)	(1,0)	(1,0)	(1,0)	(1,0)	(1,0)	(1,0)	
L1D -366>	(7,1)	(369,1)	(409,4)	(8,1)	(5,1)	(1,0)	(1,0)	(1,0)	(1,0)	(1,0)	(1,0)	(1,0)	(1,0)	(1,0)	(1,0)	(1,0)	
L1D -365>	(369,88)	(1,2)	(2,1)	(-131,1)	(1,0)	(1,0)	(1,0)	(1,0)	(1,0)	(1,0)	(1,0)	(1,0)	(1,0)	(1,0)	(1,0)	(1,0)	
L1D -364>	(8,1)	(-5,1)	(2,1)	(7,1)	(-10,1)	(1,1)	(1,0)	(1,0)	(1,0)	(1,0)	(1,0)	(1,0)	(1,0)	(1,0)	(1,0)	(1,0)	
L1D -363>	(-1,1)	(1,0)	(1,0)	(1,0)	(1,0)	(1,0)	(1,0)	(1,0)	(1,0)	(1,0)	(1,0)	(1,0)	(1,0)	(1,0)	(1,0)	(1,0)	
L1D -362>	(1,1)	(9,1)	(7,1)	(4,1)	(8,1)	(0,1)	(-1,9)	(1,0)	(1,0)	(1,0)	(1,0)	(1,0)	(1,0)	(1,0)	(1,0)	(1,0)	
L1D -361>	(1,107)	(320,0)	(1,0)	(1,0)	(1,0)	(1,0)	(1,0)	(1,0)	(1,0)	(1,0)	(1,0)	(1,0)	(1,0)	(1,0)	(1,0)	(1,0)	
L1D -360>	(0,1)	(7,5)	(8,2)	(6,1)	(-1,4)	(1,0)	(1,0)	(1,0)	(1,0)	(1,0)	(1,0)	(1,0)	(1,0)	(1,0)	(1,0)	(1,0)	
L1D -359>	(0,1)	(7,1)	(1,0)	(1,0)	(1,0)	(1,0)	(1,0)	(1,0)	(1,0)	(1,0)	(1,0)	(1,0)	(1,0)	(1,0)	(1,0)	(1,0)	
L1D -358>	(409,1)	(7,2)	(8,1)	(-1,9)	(1,0)	(1,0)	(1,0)	(1,0)	(1,0)	(1,0)	(1,0)	(1,0)	(1,0)	(1,0)	(1,0)	(1,0)	
L1D -357>	(409,100)	(1,1)	(367,0)	(1,0)	(1,0)	(1,0)	(1,0)	(1,0)	(1,0)	(1,0)	(1,0)	(1,0)	(1,0)	(1,0)	(1,0)	(1,0)	
L1D -356>	(2,55)	(85,103)	(8,1)	(0,3)	(7,1)	(-113,1)	(-4,5)	(1,0)	(1,0)	(1,0)	(1,0)	(1,0)	(1,0)	(1,0)	(1,0)	(1,0)	
L1D -355>	(1,101)	(2,0)	(85,0)	(5,0)	(1,0)	(1,0)	(1,0)	(1,0)	(1,0)	(1,0)	(1,0)	(1,0)	(1,0)	(1,0)	(1,0)	(1,0)	
L1D -354>	(7,2)	(4,5)	(357,1)	(2,1)	(30,1)	(8,1)	(363,1)	(1,0)	(1,0)	(1,0)	(1,0)	(1,0)	(1,0)	(1,0)	(1,0)	(1,0)	
L1D -353>	(1,105)	(1,0)	(1,0)	(1,0)	(1,0)	(1,0)	(1,0)	(1,0)	(1,0)	(1,0)	(1,0)	(1,0)	(1,0)	(1,0)	(1,0)	(1,0)	
L1D -352>	(4,98)	(38,0)	(2,4)	(5,2)	(8,2)	(1,3)	(7,1)	(-5,0)	(1,0)	(1,0)	(1,0)	(1,0)	(1,0)	(1,0)	(1,0)	(1,0)	
L1D -351>	(1,2)	(5,1)	(4,1)	(1,0)	(1,0)	(1,0)	(1,0)	(1,0)	(1,0)	(1,0)	(1,0)	(1,0)	(1,0)	(1,0)	(1,0)	(1,0)	
L1D -350>	(5,80)	(0,0)	(359,0)	(7,1)	(2,4)	(6,0)	(-20,0)	(1,0)	(1,0)	(1,0)	(1,0)	(1,0)	(1,0)	(1,0)	(1,0)	(1,0)	
L1D -349>	(2,97)	(0,1)	(-6,2)	(-5,0)	(4,0)	(1,0)	(1,0)	(1,0)	(1,0)	(1,0)	(1,0)	(1,0)	(1,0)	(1,0)	(1,0)	(1,0)	
L1D -348>	(9,1)	(2,6)	(351,6)	(8,2)	(1,0)	(1,0)	(1,0)	(1,0)	(1,0)	(1,0)	(1,0)	(1,0)	(1,0)	(1,0)	(1,0)	(1,0)	
L1D -347>	(2,83)	(5,0)	(-5,3)	(1,0)	(1,0)	(1,0)	(1,0)	(1,0)	(1,0)	(1,0)	(1,0)	(1,0)	(1,0)	(1,0)	(1,0)	(1,0)	
L1D -346>	(351,89)	(5,1)	(2,3)	(6,0)	(1,0)	(322,0)	(-9,0)	(-7,0)	(342,0)	(321,0)	(-2,0)	(8,0)	(1,0)	(1,0)	(1,0)	(1,0)	
L1D -345>	(-12,1)	(376,1)	(2,1)	(5,6)	(1,0)	(1,0)	(1,0)	(1,0)	(1,0)	(1,0)	(1,0)	(1,0)	(1,0)	(1,0)	(1,0)	(1,0)	
L1D -344>	(-12,3)	(-4,1)	(-16,90)	(2,6)	(1,0)	(7,1)	(8,1)	(4,0)	(5,0)	(1,0)	(1,0)	(1,0)	(1,0)	(1,0)	(1,0)	(1,0)	
L1D -343>	(-4,86)	(-12,94)	(-16,3)	(-15,104)	(0,3)	(2,22)	(335,0)	(-17,0)	(343,0)	(1,0)	(1,0)	(1,0)	(1,0)	(1,0)	(1,0)	(1,0)	
L1D -342>	(-11,90)	(335,1)	(2,7)	(8,0)	(1,0)	(5,4)	(7,1)	(-4,0)	(310,0)	(1,0)	(1,0)	(1,0)	(1,0)	(1,0)	(1,0)	(1,0)	
L1D -341>	(335,95)	(0,1)	(2,4)	(-11,1)	(5,10)	(343,0)	(1,1)	(1,0)	(1,0)	(1,0)	(1,0)	(1,0)	(1,0)	(1,0)	(1,0)	(1,0)	
L1D -340>	(0,1)	(8,1)	(7,1)	(1,0)	(1,0)	(1,0)	(1,0)	(1,0)	(1,0)	(1,0)	(1,0)	(1,0)	(1,0)	(1,0)	(1,0)	(1,0)	
L1D -339>	(452,7)	(0,13)	(370,1)	(350,1)	(339,1)	(2,3)	(5,1)	(1,0)	(1,0)	(1,0)	(1,0)	(1,0)	(1,0)	(1,0)	(1,0)	(1,0)	
L1D -338>	(7,1)	(387,3)	(6,1)	(8,1)	(1,0)	(1,0)	(1,0)	(1,0)	(1,0)	(1,0)	(1,0)	(1,0)	(1,0)	(1,0)	(1,0)	(1,0)	
L1D -337>	(367,1)	(1,0)	(1,0)	(1,0)	(1,0)	(1,0)	(1,0)	(1,0)	(1,0)	(1,0)	(1,0)	(1,0)	(1,0)	(1,0)	(1,0)	(1,0)	
L1D -336>	(387,101)	(70,1)	(5,0)	(7,1)	(1,0)	(367,0)	(229,0)	(8,1)	(4,0)	(1,0)	(1,0)	(1,0)	(1,0)	(1,0)	(1,0)	(1,0)	
L1D -335>	(44,1)	(1,1)	(367,1)	(1,0)	(1,0)	(1,0)	(1,0)	(1,0)	(1,0)	(1,0)	(1,0)	(1,0)	(1,0)	(1,0)	(1,0)	(1,0)	
L1D -334>	(7,1)	(0,16)	(8,1)	(-5,1)	(4,1)	(122,1)	(1,2)	(1,0)	(1,0)	(1,0)	(1,0)	(1,0)	(1,0)	(1,0)	(1,0)	(1,0)	
L1D -333>	(1,2)	(1,0)	(1,0)	(1,0)	(1,0)	(1,0)	(1,0)	(1,0)	(1,0)	(1,0)	(1,0)	(1,0)	(1,0)	(1,0)	(1,0)	(1,0)	
L1D -332>	(1,103)	(8,1)	(0,1)	(-15,0)	(1,0)	(1,0)	(1,0)	(1,0)	(1,0)	(1,0)	(1,0)	(1,0)	(1,0)	(1,0)	(1,0)	(1,0)	
L1D -331>	(0,1)	(1,0)	(1,0)	(1,0)	(1,0)	(1,0)	(1,0)	(1,0)	(1,0)	(1,0)	(1,0)	(1,0)	(1,0)	(1,0)	(1,0)	(1,0)	
L1D -330>	(452,98)	(0,1)	(7,1)	(8,0)	(1,2)	(1,0)	(1,0)	(1,0)	(1,0)	(1,0)	(1,0)	(1,0)	(1,0)	(1,0)	(1,0)	(1,0)	
L1D -329>	(0,3)	(330,1)	(370,1)	(-2,1)	(1,0)	(1,0)	(1,0)	(1,0)	(1,0)	(1,0)	(1,0)	(1,0)	(1,0)	(1,0)	(1,0)	(1,0)	
L1D -328>	(5,1)	(7,4)	(0,7)	(329,7)	(8,2)	(6,1)	(1,0)	(1,0)	(1,0)	(1,0)	(1,0)	(1,0)	(1,0)	(1,0)	(1,0)	(1,0)	
L1D -327>	(-59,1)	(346,1)	(7,1)	(62,2)	(1,0)	(1,0)	(1,0)	(1,0)	(1,0)	(1,0)	(1,0)	(1,0)	(1,0)	(1,0)	(1,0)	(1,0)	
L1D -326>	(346,106)	(9,2)	(7,0)	(1,0)	(5,1)	(1,0)	(1,0)	(1,0)	(1,0)	(1,0)	(1,0)	(1,0)	(1,0)	(1,0)	(1,0)	(1,0)	
L1D -325>	(9,97)	(2,3)	(-3,0)	(325,0)	(1,0)	(1,0)	(1,0)	(1,0)	(1,0)	(1,0)	(1,0)	(1,0)	(1,0)	(1,0)	(1,0)	(1,0)	
L1D -324>	(4,18)	(154,113)	(0,4)	(7,1)	(151,11)	(2,1)	(1,0)	(1,0)	(1,0)	(1,0)	(1,0)	(1,0)	(1,0)	(1,0)	(1,0)	(1,0)	
L1D -323>	(154,37)	(151,33)	(4,2)	(355,1)	(0,1)	(1,0)	(1,0)	(1,0)	(1,0)	(1,0)	(1,0)	(1,0)	(1,0)	(1,0)	(1,0)	(1,0)	
L1D -322>	(7,2)	(151,1)	(154,3)	(1,0)	(1,0)	(1,0)	(1,0)	(1,0)	(1,0)	(1,0)	(1,0)	(1,0)	(1,0)	(1,0)	(1,0)	(1,0)	
L1D -321>	(1,0)	(1,0)	(1,0)	(1,0)	(1,0)	(1,0)	(1,0)	(1,0)	(1,0)	(1,0)	(1,0)	(1,0)	(1,0)	(1,0)	(1,0)	(1,0)	
L1D -320>	(0,3)	(1,1)	(6,1)	(-8,1)	(8,3)	(7,3)	(1,0)	(1,0)	(1,0)	(1,0)	(1,0)	(1,0)	(1,0)	(1,0)	(1,0)	(1,0)	
L1D -319>	(1,8)	(0,1)	(-8,88)	(217,1)	(1,0)	(1,0)	(1,0)	(1,0)	(1,0)	(1,0)	(1,0)	(1,0)	(1,0)	(1,0)	(1,0)	(1,0)	
L1D -318>	(9,1)	(1,1)	(7,2)	(8,1)	(1,0)	(1,0)	(1,0)	(1,0)	(1,0)	(1,0)	(1,0)	(1,0)	(1,0)	(1,0)	(1,0)	(1,0)	
L1D -317>	(1,0)	(1,0)	(1,0)	(1,0)	(1,0)	(1,0)	(1,0)	(1,0)	(1,0)	(1,0)	(1,0)	(1,0)	(1,0)	(1,0)	(1,0)	(1,0)	
L1D -316>	(2,1)	(7,1)	(8,1)	(159,1)	(1,0)	(1,0)	(1,0)	(1,0)	(1,0)	(1,0)	(1,0)	(1,0)	(1,0)	(1,0)	(1,0)	(1,0)	
L1D -315>	(2,2)	(-3,1)	(14,1)	(249,1)	(1,0)	(1,0)	(1,0)	(1,0)	(1,0)	(1,0)	(1,0)	(1,0)	(1,0)	(1,0)	(1,0)	(1,0)	
L1D -314>	(1,1)	(7,1)	(2,1)	(8,1)	(1,0)	(1,0)	(1,0)	(1,0)	(1,0)	(1,0)	(1,0)	(1,0)	(1,0)	(1,0)	(1,0)	(1,0)	
L1D -313>	(0,1)	(12,1)	(1,0)	(1,0)	(1,0)	(1,0)	(1,0)	(1,0)	(1,0)	(1,0)	(1,0)	(1,0)	(1,0)	(1,0)	(1,0)	(1,0)	
L1D -312>	(2,1)	(7,3)	(1,1)	(8,2)	(1,0)	(1,0)	(1,0)	(1,0)	(1,0)	(1,0)	(1,0)	(1,0)	(1,0)	(1,0)	(1,0)	(1,0)	
L1D -311>	(360,1)	(1,0)	(1,0)	(1,0)	(1,0)	(1,0)	(1,0)	(1,0)	(1,0)	(1,0)	(1,0)	(1,0)	(1,0)	(1,0)	(1,0)	(1,0)	
L1D -310>	(0,2)	(2,1)	(8,1)	(310,1)	(1,0)	(1,0)	(1,0)	(1,0)	(1,0)	(1,0)	(1,0)	(1,0)	(1,0)	(1,0)	(1,0)	(1,0)	
L1D -309>	(501,103)	(1,2)	(-15,0)	(1,0)	(1,0)	(1,0)	(1,0)	(1,0)	(1,0)	(1,0)	(1,0)	(1,0)	(1,0)	(1,0)	(1,0)	(1,0)	
L1D -308>	(1,1)	(7,1)	(0,1)	(1,0)	(1,0)	(1,0)	(1,0)	(1,0)	(1,0)	(1,0)	(1,0)	(1,0)	(1,0)	(1,0)	(1,0)	(1,0)	
L1D -307>	(1,2)	(1,0)	(1,0)	(1,0)	(1,0)	(1,0)	(1,0)	(1,0)	(1,0)	(1,0)	(1,0)	(1,0)	(1,0)	(1,0)	(1,0)	(1,0)	
L1D -306>	(5,15)	(2,1)	(8,2)	(1,0)	(1,0)	(1,0)	(1,0)	(1,0)	(1,0)	(1,0)	(1,0)	(1,0)	(1,0)	(1,0)	(1,0)	(1,0)	
L1D -305>	(5,90)	(-5,0)	(1,0)	(1,0)	(1,0)	(1,0)	(1,0)	(1,0)	(1,0)	(1,0)	(1,0)	(1,0)	(1,0)	(1,0)	(1,0)	(1,0)	
L1D -304>	(2,2)	(1,1)	(7,5)	(-5,1)	(8,2)	(4,1)	(1,0)	(1,0)	(1,0)	(1,0)	(1,0)	(1,0)	(1,0)	(1,0)	(1,0)	(1,0)	
L1D -303>	(249,42)	(1,5)	(2,4)	(1,0)	(1,0)	(1,0)	(1,0)	(1,0)	(1,0)	(1,0)	(1,0)	(1,0)	(1,0)	(1,0)	(1,0)	(1,0)	
L1D -302>	(18,15)	(2,1)	(8,2)	(7,1)	(1,0)	(1,0)	(1,0)	(1,0)	(1,0)	(1,0)	(1,0)	(1,0)	(1,0)	(1,0)	(1,0)	(1,0)	
L1D -301>	(1,103)	(2,6)	(18,92)	(1,0)	(1,0)	(1,0)	(1,0)	(1,0)	(1,0)	(1,0)	(1,0)	(1,0)	(1,0)	(1,0)	(1,0)	(1,0)	
L1D -300>	(1,1)	(2,4)	(0,4)	(7,1)	(74,1)	(82,1)	(1,0)	(1,0)	(1,0)	(1,0)	(1,0)	(1,0)	(1,0)	(1,0)	(1,0)	(1,0)	
L1D -299>	(-12,106)	(2,105)	(0,40)	(1,4)	(217,1)	(1,0)	(1,0)	(1,0)	(1,0)	(1,0)	(1,0)	(1,0)	(1,0)	(1,0)	(1,0)	(1,0)	
L1D -298>	(1,1)	(8,2)	(-17,1)	(1,0)	(1,0)	(1,0)	(1,0)	(1,0)	(1,0)	(1,0)	(1,0)	(1,0)	(1,0)	(1,0)	(1,0)	(1,0)	
L1D -297>	(9,1)	(-75,1)	(1,0)	(1,0)	(1,0)	(1,0)	(1,0)	(1,0)	(1,0)	(1,0)	(1,0)	(1,0)	(1,0)	(1,0)	(1,0)	(1,0)	
L1D -296>	(2,1)	(8,1)	(9,1)	(6,1)	(7,3)	(1,1)	(1,0)	(1,0)	(1,0)	(1,0)	(1,0)	(1,0)	(1,0)	(1,0)	(1,0)	(1,0)	
L1D -295>	(-1,1)	(7,1)	(1,0)	(1,0)	(1,0)	(1,0)	(1,0)	(1,0)	(1,0)	(1,0)	(1,0)	(1,0)	(1,0)	(1,0)	(1,0)	(1,0)	
L1D -294>	(2,1)	(7,1)	(8,1)	(1,0)	(1,0)	(1,0)	(1,0)	(1,0)	(1,0)	(1,0)	(1,0)	(1,0)	(1,0)	(1,0)	(1,0)	(1,0)	
L1D -293>	(2,1)	(1,0)	(1,0)	(1,0)	(1,0)	(1,0)	(1,0)	(1,0)	(1,0)	(1,0)	(1,0)	(1,0)	(1,0)	(1,0)	(1,0)	(1,0)	
L1D -292>	(1,1)	(5,1)	(4,1)	(1,0)	(1,0)	(1,0)	(1,0)	(1,0)	(1,0)	(1,0)	(1,0)	(1,0)	(1,0)	(1,0)	(1,0)	(1,0)	
L1D -291>	(89,1)	(1,0)	(1,0)	(1,0)	(1,0)	(1,0)	(1,0)	(1,0)	(1,0)	(1,0)	(1,0)	(1,0)	(1,0)	(1,0)	(1,0)	(1,0)	
L1D -290>	(1,1)	(8,3)	(1,0)	(1,0)	(1,0)	(1,0)	(1,0)	(1,0)	(1,0)	(1,0)	(1,0)	(1,0)	(1,0)	(1,0)	(1,0)	(1,0)	
L1D -289>	(292,3)	(1,0)	(1,0)	(1,0)	(1,0)	(1,0)	(1,0)	(1,0)	(1,0)	(1,0)	(1,0)	(1,0)	(1,0)	(1,0)	(1,0)	(1,0)	
L1D -288>	(2,1)	(7,4)	(167,1)	(8,1)	(110,1)	(1,0)	(1,0)	(1,0)	(1,0)	(1,0)	(1,0)	(1,0)	(1,0)	(1,0)	(1,0)	(1,0)	
L1D -287>	(292,98)	(1,4)	(265,1)	(300,0)	(264,0)	(1,0)	(1,0)	(1,0)	(1,0)	(1,0)	(1,0)	(1,0)	(1,0)	(1,0)	(1,0)	(1,0)	
L1D -286>	(1,94)	(2,14)	(4,0)	(-15,0)	(7,0)	(1,0)	(1,0)	(1,0)	(1,0)	(1,0)	(1,0)	(1,0)	(1,0)	(1,0)	(1,0)	(1,0)	
L1D -285>	(5,3)	(-15,3)	(2,1)	(0,1)	(-20,1)	(1,0)	(1,0)	(1,0)	(1,0)	(1,0)	(1,0)	(1,0)	(1,0)	(1,0)	(1,0)	(1,0)	
L1D -284>	(2,88)	(-15,98)	(7,0)	(0,2)	(1,3)	(-162,0)	(200,33)	(1,0)	(1,0)	(1,0)	(1,0)	(1,0)	(1,0)	(1,0)	(1,0)	(1,0)	
L1D -283>	(5,86)	(0,36)	(-1,1)	(1,0)	(1,0)	(1,0)	(1,0)	(1,0)	(1,0)	(1,0)	(1,0)	(1,0)	(1,0)	(1,0)	(1,0)	(1,0)	
L1D -282>	(-71,6)	(2,2)	(8,1)	(1,0)	(1,0)	(1,0)	(1,0)	(1,0)	(1,0)	(1,0)	(1,0)	(1,0)	(1,0)	(1,0)	(1,0)	(1,0)	
L1D -281>	(2,1)	(200,28)	(92,1)	(1,0)	(1,0)	(1,0)	(1,0)	(1,0)	(1,0)	(1,0)	(1,0)	(1,0)	(1,0)	(1,0)	(1,0)	(1,0)	
L1D -280>	(-71,93)	(2,5)	(-1,14)	(7,2)	(1,0)	(140,1)	(8,1)	(6,0)	(1,0)	(1,0)	(1,0)	(1,0)	(1,0)	(1,0)	(1,0)	(1,0)	
L1D -279>	(2,100)	(0,2)	(-1,0)	(1,0)	(1,0)	(1,0)	(1,0)	(1,0)	(1,0)	(1,0)	(1,0)	(1,0)	(1,0)	(1,0)	(1,0)	(1,0)	
L1D -278>	(-5,75)	(1,1)	(8,0)	(-1,9)	(7,0)	(1,0)	(1,0)	(1,0)	(1,0)	(1,0)	(1,0)	(1,0)	(1,0)	(1,0)	(1,0)	(1,0)	
L1D -277>	(271,6)	(0,1)	(1,0)	(1,0)	(1,0)	(1,0)	(1,0)	(1,0)	(1,0)	(1,0)	(1,0)	(1,0)	(1,0)	(1,0)	(1,0)	(1,0)	
L1D -276>	(2,4)	(7,1)	(1,0)	(1,0)	(1,0)	(1,0)	(1,0)	(1,0)	(1,0)	(1,0)	(1,0)	(1,0)	(1,0)	(1,0)	(1,0)	(1,0)	
L1D -275>	(271,98)	(1,2)	(1,0)	(1,0)	(1,0)	(1,0)	(1,0)	(1,0)	(1,0)	(1,0)	(1,0)	(1,0)	(1,0)	(1,0)	(1,0)	(1,0)	
L1D -274>	(2,105)	(283,2)	(7,1)	(8,2)	(1,0)	(1,0)	(1,0)	(1,0)	(1,0)	(1,0)	(1,0)	(1,0)	(1,0)	(1,0)	(1,0)	(1,0)	
L1D -273>	(283,98)	(2,3)	(8,0)	(1,0)	(1,0)	(1,0)	(1,0)	(1,0)	(1,0)	(1,0)	(1,0)	(1,0)	(1,0)	(1,0)	(1,0)	(1,0)	
L1D -272>	(2,1)	(5,2)	(272,2)	(0,1)	(1,1)	(7,2)	(4,1)	(1,0)	(1,0)	(1,0)	(1,0)	(1,0)	(1,0)	(1,0)	(1,0)	(1,0)	
L1D -271>	(0,122)	(271,41)	(1,32)	(3,2)	(4,1)	(6,1)	(11,74)	(13,9)	(1,0)	(1,0)	(1,0)	(1,0)	(1,0)	(1,0)	(1,0)	(1,0)	
L1D -270>	(0,112)	(80,76)	(2,3)	(8,1)	(1,0)	(1,0)	(1,0)	(1,0)	(1,0)	(1,0)	(1,0)	(1,0)	(1,0)	(1,0)	(1,0)	(1,0)	
L1D -269>	(1,5)	(107,87)	(75,1)	(5,1)	(267,0)	(268,0)	(1,0)	(1,0)	(1,0)	(1,0)	(1,0)	(1,0)	(1,0)	(1,0)	(1,0)	(1,0)	
L1D -268>	(0,85)	(5,52)	(68,1)	(7,45)	(-19,21)	(10,0)	(1,2)	(1,0)	(1,0)	(1,0)	(1,0)	(1,0)	(1,0)	(1,0)	(1,0)	(1,0)	
L1D -267>	(0,19)	(-20,3)	(8,1)	(1,0)	(1,0)	(1,0)	(1,0)	(1,0)	(1,0)	(1,0)	(1,0)	(1,0)	(1,0)	(1,0)	(1,0)	(1,0)	
L1D -266>	(2,2)	(170,1)	(8,2)	(7,1)	(1,0)	(1,0)	(1,0)	(1,0)	(1,0)	(1,0)	(1,0)	(1,0)	(1,0)	(1,0)	(1,0)	(1,0)	
L1D -265>	(4,1)	(268,4)	(0,2)	(5,1)	(170,1)	(1,1)	(1,0)	(1,0)	(1,0)	(1,0)	(1,0)	(1,0)	(1,0)	(1,0)	(1,0)	(1,0)	
L1D -264>	(1,2)	(2,6)	(7,4)	(270,1)	(0,8)	(8,1)	(1,0)	(1,0)	(1,0)	(1,0)	(1,0)	(1,0)	(1,0)	(1,0)	(1,0)	(1,0)	
L1D -263>	(2,93)	(268,94)	(5,4)	(6,0)	(-78,0)	(1,1)	(199,0)	(7,0)	(1,0)	(1,0)	(1,0)	(1,0)	(1,0)	(1,0)	(1,0)	(1,0)	
L1D -262>	(2,1)	(-133,1)	(7,1)	(8,1)	(-1,1)	(1,0)	(1,0)	(1,0)	(1,0)	(1,0)	(1,0)	(1,0)	(1,0)	(1,0)	(1,0)	(1,0)	
L1D -261>	(-23,1)	(263,1)	(265,1)	(135,4)	(1,0)	(1,0)	(1,0)	(1,0)	(1,0)	(1,0)	(1,0)	(1,0)	(1,0)	(1,0)	(1,0)	(1,0)	
L1D -260>	(6,35)	(2,2)	(8,0)	(0,0)	(3,0)	(-11,107)	(1,0)	(1,0)	(1,0)	(1,0)	(1,0)	(1,0)	(1,0)	(1,0)	(1,0)	(1,0)	
L1D -259>	(-12,42)	(217,1)	(108,1)	(3,1)	(1,13)	(5,1)	(7,1)	(93,1)	(67,1)	(58,1)	(207,5)	(137,1)	(31,1)	(211,1)	(-13,6)	(199,2)	
L1D -258>	(1,97)	(2,0)	(8,1)	(-13,100)	(108,0)	(45,0)	(-2,26)	(1,0)	(1,0)	(1,0)	(1,0)	(1,0)	(1,0)	(1,0)	(1,0)	(1,0)	
L1D -257>	(1,1)	(127,1)	(262,1)	(-6,1)	(-14,1)	(1,0)	(1,0)	(1,0)	(1,0)	(1,0)	(1,0)	(1,0)	(1,0)	(1,0)	(1,0)	(1,0)	
L1D -256>	(2,1)	(252,3)	(-4,1)	(7,1)	(9,1)	(8,5)	(1,0)	(1,0)	(1,0)	(1,0)	(1,0)	(1,0)	(1,0)	(1,0)	(1,0)	(1,0)	
L1D -255>	(1,3)	(209,1)	(240,1)	(0,1)	(-1,1)	(1,0)	(1,0)	(1,0)	(1,0)	(1,0)	(1,0)	(1,0)	(1,0)	(1,0)	(1,0)	(1,0)	
L1D -254>	(1,1)	(2,1)	(250,1)	(7,2)	(257,8)	(253,26)	(5,17)	(271,1)	(129,2)	(8,1)	(1,0)	(1,0)	(1,0)	(1,0)	(1,0)	(1,0)	
L1D -253>	(253,35)	(1,1)	(254,1)	(257,8)	(22,1)	(127,4)	(5,2)	(129,2)	(270,1)	(1,0)	(1,0)	(1,0)	(1,0)	(1,0)	(1,0)	(1,0)	
L1D -252>	(2,6)	(45,1)	(0,1)	(8,1)	(7,1)	(-5,12)	(248,14)	(200,1)	(196,1)	(-3,1)	(93,1)	(1,0)	(1,0)	(1,0)	(1,0)	(1,0)	
L1D -251>	(257,1)	(1,0)	(1,0)	(1,0)	(1,0)	(1,0)	(1,0)	(1,0)	(1,0)	(1,0)	(1,0)	(1,0)	(1,0)	(1,0)	(1,0)	(1,0)	
L1D -250>	(2,83)	(0,2)	(246,4)	(124,0)	(1,0)	(1,0)	(1,0)	(1,0)	(1,0)	(1,0)	(1,0)	(1,0)	(1,0)	(1,0)	(1,0)	(1,0)	
L1D -249>	(0,1)	(248,1)	(120,1)	(122,1)	(124,2)	(1,0)	(1,0)	(1,0)	(1,0)	(1,0)	(1,0)	(1,0)	(1,0)	(1,0)	(1,0)	(1,0)	
L1D -248>	(194,90)	(2,11)	(8,1)	(5,3)	(6,2)	(7,1)	(1,0)	(1,0)	(1,0)	(1,0)	(1,0)	(1,0)	(1,0)	(1,0)	(1,0)	(1,0)	
L1D -247>	(2,28)	(5,6)	(0,1)	(246,1)	(1,0)	(1,0)	(1,0)	(1,0)	(1,0)	(1,0)	(1,0)	(1,0)	(1,0)	(1,0)	(1,0)	(1,0)	
L1D -246>	(2,101)	(247,0)	(1,1)	(7,1)	(242,0)	(0,3)	(246,5)	(228,0)	(4,0)	(1,0)	(1,0)	(1,0)	(1,0)	(1,0)	(1,0)	(1,0)	
L1D -245>	(1,1)	(0,19)	(-22,3)	(2,1)	(-1,1)	(245,1)	(1,0)	(1,0)	(1,0)	(1,0)	(1,0)	(1,0)	(1,0)	(1,0)	(1,0)	(1,0)	
L1D -244>	(1,107)	(2,1)	(240,0)	(1,0)	(1,0)	(1,0)	(1,0)	(1,0)	(1,0)	(1,0)	(1,0)	(1,0)	(1,0)	(1,0)	(1,0)	(1,0)	
L1D -243>	(-5,3)	(2,1)	(1,0)	(1,0)	(1,0)	(1,0)	(1,0)	(1,0)	(1,0)	(1,0)	(1,0)	(1,0)	(1,0)	(1,0)	(1,0)	(1,0)	
L1D -242>	(-5,105)	(2,0)	(238,1)	(7,0)	(1,0)	(1,0)	(1,0)	(1,0)	(1,0)	(1,0)	(1,0)	(1,0)	(1,0)	(1,0)	(1,0)	(1,0)	
L1D -241>	(14,2)	(1,0)	(1,0)	(1,0)	(1,0)	(1,0)	(1,0)	(1,0)	(1,0)	(1,0)	(1,0)	(1,0)	(1,0)	(1,0)	(1,0)	(1,0)	
L1D -240>	(14,103)	(1,1)	(8,3)	(2,1)	(7,1)	(6,1)	(1,0)	(1,0)	(1,0)	(1,0)	(1,0)	(1,0)	(1,0)	(1,0)	(1,0)	(1,0)	
L1D -239>	(98,120)	(0,3)	(-28,1)	(1,0)	(1,0)	(1,0)	(1,0)	(1,0)	(1,0)	(1,0)	(1,0)	(1,0)	(1,0)	(1,0)	(1,0)	(1,0)	
L1D -238>	(5,93)	(2,6)	(234,1)	(7,0)	(0,2)	(8,1)	(-20,0)	(1,0)	(1,0)	(1,0)	(1,0)	(1,0)	(1,0)	(1,0)	(1,0)	(1,0)	
L1D -237>	(235,1)	(202,1)	(-5,1)	(-4,1)	(-1,1)	(220,1)	(1,0)	(1,0)	(1,0)	(1,0)	(1,0)	(1,0)	(1,0)	(1,0)	(1,0)	(1,0)	
L1D -236>	(-8,93)	(2,5)	(0,0)	(230,3)	(8,0)	(5,0)	(232,0)	(79,1)	(1,0)	(1,0)	(1,0)	(1,0)	(1,0)	(1,0)	(1,0)	(1,0)	
L1D -235>	(230,114)	(0,1)	(1,0)	(1,0)	(1,0)	(1,0)	(1,0)	(1,0)	(1,0)	(1,0)	(1,0)	(1,0)	(1,0)	(1,0)	(1,0)	(1,0)	
L1D -234>	(2,0)	(230,0)	(8,0)	(234,9)	(79,5)	(143,70)	(236,0)	(0,0)	(1,0)	(1,0)	(1,0)	(1,0)	(1,0)	(1,0)	(1,0)	(1,0)	
L1D -233>	(1,0)	(1,0)	(1,0)	(1,0)	(1,0)	(1,0)	(1,0)	(1,0)	(1,0)	(1,0)	(1,0)	(1,0)	(1,0)	(1,0)	(1,0)	(1,0)	
L1D -232>	(57,75)	(84,36)	(7,4)	(8,1)	(6,1)	(1,0)	(1,0)	(1,0)	(1,0)	(1,0)	(1,0)	(1,0)	(1,0)	(1,0)	(1,0)	(1,0)	
L1D -231>	(57,112)	(7,0)	(1,0)	(1,0)	(1,0)	(1,0)	(1,0)	(1,0)	(1,0)	(1,0)	(1,0)	(1,0)	(1,0)	(1,0)	(1,0)	(1,0)	
L1D -230>	(57,37)	(2,1)	(7,1)	(226,1)	(271,3)	(0,2)	(8,2)	(1,0)	(1,0)	(1,0)	(1,0)	(1,0)	(1,0)	(1,0)	(1,0)	(1,0)	
L1D -229>	(57,10)	(1,0)	(1,0)	(1,0)	(1,0)	(1,0)	(1,0)	(1,0)	(1,0)	(1,0)	(1,0)	(1,0)	(1,0)	(1,0)	(1,0)	(1,0)	
L1D -228>	(2,1)	(7,1)	(0,4)	(271,3)	(74,1)	(217,1)	(1,0)	(1,0)	(1,0)	(1,0)	(1,0)	(1,0)	(1,0)	(1,0)	(1,0)	(1,0)	
L1D -227>	(-44,1)	(252,1)	(1,0)	(1,0)	(1,0)	(1,0)	(1,0)	(1,0)	(1,0)	(1,0)	(1,0)	(1,0)	(1,0)	(1,0)	(1,0)	(1,0)	
L1D -226>	(2,1)	(227,1)	(222,1)	(0,4)	(271,2)	(7,1)	(1,1)	(1,0)	(1,0)	(1,0)	(1,0)	(1,0)	(1,0)	(1,0)	(1,0)	(1,0)	
L1D -225>	(2,1)	(5,1)	(1,0)	(1,0)	(1,0)	(1,0)	(1,0)	(1,0)	(1,0)	(1,0)	(1,0)	(1,0)	(1,0)	(1,0)	(1,0)	(1,0)	
L1D -224>	(-8,1)	(2,1)	(220,3)	(271,3)	(0,6)	(7,5)	(8,2)	(1,0)	(1,0)	(1,0)	(1,0)	(1,0)	(1,0)	(1,0)	(1,0)	(1,0)	
L1D -223>	(5,104)	(271,2)	(7,1)	(1,2)	(224,0)	(9,0)	(136,0)	(1,0)	(1,0)	(1,0)	(1,0)	(1,0)	(1,0)	(1,0)	(1,0)	(1,0)	
L1D -222>	(2,1)	(222,1)	(0,1)	(218,3)	(7,1)	(1,0)	(1,0)	(1,0)	(1,0)	(1,0)	(1,0)	(1,0)	(1,0)	(1,0)	(1,0)	(1,0)	
L1D -221>	(0,1)	(-5,7)	(-50,1)	(6,1)	(1,0)	(1,0)	(1,0)	(1,0)	(1,0)	(1,0)	(1,0)	(1,0)	(1,0)	(1,0)	(1,0)	(1,0)	
L1D -220>	(0,1)	(2,30)	(227,5)	(8,1)	(118,1)	(1,0)	(1,0)	(1,0)	(1,0)	(1,0)	(1,0)	(1,0)	(1,0)	(1,0)	(1,0)	(1,0)	
L1D -219>	(-5,98)	(1,1)	(2,0)	(16,0)	(1,0)	(1,0)	(1,0)	(1,0)	(1,0)	(1,0)	(1,0)	(1,0)	(1,0)	(1,0)	(1,0)	(1,0)	
L1D -218>	(2,116)	(227,61)	(0,1)	(74,1)	(164,0)	(1,1)	(1,0)	(1,0)	(1,0)	(1,0)	(1,0)	(1,0)	(1,0)	(1,0)	(1,0)	(1,0)	
L1D -217>	(177,1)	(2,1)	(1,9)	(-1,1)	(-155,1)	(1,0)	(1,0)	(1,0)	(1,0)	(1,0)	(1,0)	(1,0)	(1,0)	(1,0)	(1,0)	(1,0)	
L1D -216>	(2,1)	(217,6)	(225,1)	(8,4)	(7,4)	(1,1)	(0,19)	(1,0)	(1,0)	(1,0)	(1,0)	(1,0)	(1,0)	(1,0)	(1,0)	(1,0)	
L1D -215>	(-56,1)	(-6,8)	(237,1)	(1,8)	(215,1)	(7,1)	(1,0)	(1,0)	(1,0)	(1,0)	(1,0)	(1,0)	(1,0)	(1,0)	(1,0)	(1,0)	
L1D -214>	(210,2)	(1,3)	(8,1)	(-14,1)	(7,1)	(62,1)	(1,0)	(1,0)	(1,0)	(1,0)	(1,0)	(1,0)	(1,0)	(1,0)	(1,0)	(1,0)	
L1D -213>	(-6,124)	(-58,1)	(-16,6)	(10,34)	(2,2)	(1,17)	(213,1)	(6,1)	(1,0)	(1,0)	(1,0)	(1,0)	(1,0)	(1,0)	(1,0)	(1,0)	
L1D -212>	(2,1)	(1,17)	(7,1)	(8,1)	(0,1)	(1,0)	(1,0)	(1,0)	(1,0)	(1,0)	(1,0)	(1,0)	(1,0)	(1,0)	(1,0)	(1,0)	
L1D -211>	(-16,100)	(214,2)	(1,25)	(-159,1)	(7,1)	(1,0)	(1,0)	(1,0)	(1,0)	(1,0)	(1,0)	(1,0)	(1,0)	(1,0)	(1,0)	(1,0)	
L1D -210>	(1,112)	(206,1)	(8,1)	(0,1)	(7,1)	(-138,0)	(1,0)	(1,0)	(1,0)	(1,0)	(1,0)	(1,0)	(1,0)	(1,0)	(1,0)	(1,0)	
L1D -209>	(214,101)	(209,2)	(-14,1)	(-62,0)	(1,1)	(172,0)	(181,0)	(1,0)	(1,0)	(1,0)	(1,0)	(1,0)	(1,0)	(1,0)	(1,0)	(1,0)	
L1D -208>	(2,1)	(1,11)	(-14,1)	(98,1)	(4,3)	(0,2)	(5,2)	(204,1)	(8,2)	(7,2)	(-4,1)	(1,0)	(1,0)	(1,0)	(1,0)	(1,0)	
L1D -207>	(1,2)	(4,94)	(2,3)	(5,1)	(249,0)	(308,0)	(-17,0)	(-64,1)	(1,0)	(1,0)	(1,0)	(1,0)	(1,0)	(1,0)	(1,0)	(1,0)	
L1D -206>	(13,99)	(2,5)	(8,1)	(202,1)	(7,1)	(0,1)	(3,1)	(1,0)	(1,0)	(1,0)	(1,0)	(1,0)	(1,0)	(1,0)	(1,0)	(1,0)	
L1D -205>	(-66,1)	(186,1)	(1,9)	(4,1)	(0,1)	(205,1)	(2,1)	(-6,24)	(1,0)	(1,0)	(1,0)	(1,0)	(1,0)	(1,0)	(1,0)	(1,0)	
L1D -204>	(2,0)	(200,0)	(7,0)	(1,4)	(208,8)	(0,102)	(1,0)	(1,0)	(1,0)	(1,0)	(1,0)	(1,0)	(1,0)	(1,0)	(1,0)	(1,0)	
L1D -203>	(207,1)	(8,1)	(2,1)	(0,1)	(90,1)	(-2,9)	(1,0)	(1,0)	(1,0)	(1,0)	(1,0)	(1,0)	(1,0)	(1,0)	(1,0)	(1,0)	
L1D -202>	(200,98)	(2,1)	(198,1)	(4,1)	(1,4)	(-8,1)	(1,0)	(1,0)	(1,0)	(1,0)	(1,0)	(1,0)	(1,0)	(1,0)	(1,0)	(1,0)	
L1D -201>	(6,120)	(1,77)	(254,1)	(8,1)	(1,0)	(1,0)	(1,0)	(1,0)	(1,0)	(1,0)	(1,0)	(1,0)	(1,0)	(1,0)	(1,0)	(1,0)	
L1D -200>	(2,1)	(1,13)	(196,1)	(7,5)	(-1,1)	(-155,1)	(8,2)	(1,0)	(1,0)	(1,0)	(1,0)	(1,0)	(1,0)	(1,0)	(1,0)	(1,0)	
L1D -199>	(-72,1)	(199,2)	(1,1)	(1,0)	(1,0)	(1,0)	(1,0)	(1,0)	(1,0)	(1,0)	(1,0)	(1,0)	(1,0)	(1,0)	(1,0)	(1,0)	
L1D -198>	(194,5)	(7,2)	(1,3)	(-14,1)	(0,1)	(8,1)	(1,0)	(1,0)	(1,0)	(1,0)	(1,0)	(1,0)	(1,0)	(1,0)	(1,0)	(1,0)	
L1D -197>	(0,1)	(2,2)	(197,1)	(1,0)	(1,0)	(1,0)	(1,0)	(1,0)	(1,0)	(1,0)	(1,0)	(1,0)	(1,0)	(1,0)	(1,0)	(1,0)	
L1D -196>	(197,1)	(192,1)	(6,1)	(1,6)	(-36,1)	(9,1)	(1,0)	(1,0)	(1,0)	(1,0)	(1,0)	(1,0)	(1,0)	(1,0)	(1,0)	(1,0)	
L1D -195>	(195,3)	(226,1)	(-1,1)	(1,0)	(1,0)	(1,0)	(1,0)	(1,0)	(1,0)	(1,0)	(1,0)	(1,0)	(1,0)	(1,0)	(1,0)	(1,0)	
L1D -194>	(5,6)	(190,1)	(7,1)	(1,6)	(0,1)	(25,1)	(1,0)	(1,0)	(1,0)	(1,0)	(1,0)	(1,0)	(1,0)	(1,0)	(1,0)	(1,0)	
L1D -193>	(193,122)	(7,121)	(9,121)	(183,69)	(25,99)	(-1,51)	(-14,1)	(1,0)	(1,0)	(1,0)	(1,0)	(1,0)	(1,0)	(1,0)	(1,0)	(1,0)	
L1D -192>	(5,101)	(4,1)	(6,1)	(7,3)	(8,2)	(2,0)	(186,0)	(-2,0)	(1,0)	(1,0)	(1,0)	(1,0)	(1,0)	(1,0)	(1,0)	(1,0)	
L1D -191>	(4,99)	(0,1)	(2,4)	(87,1)	(1,0)	(1,0)	(1,0)	(1,0)	(1,0)	(1,0)	(1,0)	(1,0)	(1,0)	(1,0)	(1,0)	(1,0)	
L1D -190>	(186,1)	(5,1)	(1,1)	(8,1)	(7,1)	(1,0)	(1,0)	(1,0)	(1,0)	(1,0)	(1,0)	(1,0)	(1,0)	(1,0)	(1,0)	(1,0)	
L1D -189>	(192,91)	(1,3)	(0,2)	(96,1)	(95,1)	(1,0)	(1,0)	(1,0)	(1,0)	(1,0)	(1,0)	(1,0)	(1,0)	(1,0)	(1,0)	(1,0)	
L1D -188>	(5,102)	(-14,0)	(2,3)	(184,0)	(8,0)	(0,0)	(1,0)	(1,0)	(1,0)	(1,0)	(1,0)	(1,0)	(1,0)	(1,0)	(1,0)	(1,0)	
L1D -187>	(1,1)	(197,1)	(181,5)	(0,1)	(2,2)	(5,1)	(1,0)	(1,0)	(1,0)	(1,0)	(1,0)	(1,0)	(1,0)	(1,0)	(1,0)	(1,0)	
L1D -186>	(8,1)	(186,1)	(0,1)	(1,1)	(1,0)	(1,0)	(1,0)	(1,0)	(1,0)	(1,0)	(1,0)	(1,0)	(1,0)	(1,0)	(1,0)	(1,0)	
L1D -185>	(181,106)	(216,1)	(0,3)	(1,37)	(2,2)	(5,21)	(1,0)	(1,0)	(1,0)	(1,0)	(1,0)	(1,0)	(1,0)	(1,0)	(1,0)	(1,0)	
L1D -184>	(2,30)	(8,18)	(5,3)	(7,1)	(10,109)	(4,12)	(1,0)	(1,0)	(1,0)	(1,0)	(1,0)	(1,0)	(1,0)	(1,0)	(1,0)	(1,0)	
L1D -183>	(0,2)	(-88,2)	(4,1)	(1,0)	(1,0)	(1,0)	(1,0)	(1,0)	(1,0)	(1,0)	(1,0)	(1,0)	(1,0)	(1,0)	(1,0)	(1,0)	
L1D -182>	(5,80)	(89,1)	(0,2)	(2,2)	(8,1)	(178,1)	(1,1)	(7,0)	(1,0)	(1,0)	(1,0)	(1,0)	(1,0)	(1,0)	(1,0)	(1,0)	
L1D -181>	(88,1)	(1,0)	(1,0)	(1,0)	(1,0)	(1,0)	(1,0)	(1,0)	(1,0)	(1,0)	(1,0)	(1,0)	(1,0)	(1,0)	(1,0)	(1,0)	
L1D -180>	(5,59)	(7,1)	(176,1)	(1,4)	(-4,67)	(0,28)	(1,0)	(1,0)	(1,0)	(1,0)	(1,0)	(1,0)	(1,0)	(1,0)	(1,0)	(1,0)	
L1D -179>	(5,1)	(177,1)	(1,0)	(1,0)	(1,0)	(1,0)	(1,0)	(1,0)	(1,0)	(1,0)	(1,0)	(1,0)	(1,0)	(1,0)	(1,0)	(1,0)	
L1D -178>	(5,89)	(0,1)	(3,1)	(174,2)	(122,1)	(44,1)	(1,0)	(1,0)	(1,0)	(1,0)	(1,0)	(1,0)	(1,0)	(1,0)	(1,0)	(1,0)	
L1D -177>	(-77,2)	(178,1)	(0,3)	(2,1)	(154,1)	(1,0)	(1,0)	(1,0)	(1,0)	(1,0)	(1,0)	(1,0)	(1,0)	(1,0)	(1,0)	(1,0)	
L1D -176>	(5,127)	(2,83)	(8,3)	(4,1)	(0,0)	(7,2)	(1,0)	(1,0)	(1,0)	(1,0)	(1,0)	(1,0)	(1,0)	(1,0)	(1,0)	(1,0)	
L1D -175>	(5,5)	(0,2)	(176,2)	(-96,1)	(111,4)	(1,0)	(1,0)	(1,0)	(1,0)	(1,0)	(1,0)	(1,0)	(1,0)	(1,0)	(1,0)	(1,0)	
L1D -174>	(9,1)	(5,1)	(1,1)	(150,1)	(7,1)	(1,0)	(1,0)	(1,0)	(1,0)	(1,0)	(1,0)	(1,0)	(1,0)	(1,0)	(1,0)	(1,0)	
L1D -173>	(2,20)	(5,98)	(1,13)	(0,9)	(-1,1)	(111,92)	(175,94)	(174,0)	(1,0)	(1,0)	(1,0)	(1,0)	(1,0)	(1,0)	(1,0)	(1,0)	
L1D -172>	(4,66)	(3,8)	(2,19)	(89,1)	(8,1)	(-33,1)	(1,1)	(7,3)	(1,0)	(1,0)	(1,0)	(1,0)	(1,0)	(1,0)	(1,0)	(1,0)	
L1D -171>	(5,1)	(172,1)	(-5,1)	(7,1)	(-1,7)	(1,0)	(1,0)	(1,0)	(1,0)	(1,0)	(1,0)	(1,0)	(1,0)	(1,0)	(1,0)	(1,0)	
L1D -170>	(12,23)	(-3,111)	(0,20)	(-154,23)	(15,3)	(170,100)	(-70,1)	(1,10)	(1,0)	(1,0)	(1,0)	(1,0)	(1,0)	(1,0)	(1,0)	(1,0)	
L1D -169>	(1,101)	(169,16)	(170,77)	(0,55)	(12,10)	(-3,85)	(-154,15)	(15,0)	(2,1)	(5,0)	(285,0)	(1,0)	(1,0)	(1,0)	(1,0)	(1,0)	
L1D -168>	(169,79)	(168,23)	(1,94)	(173,1)	(7,4)	(8,2)	(6,1)	(-66,1)	(1,0)	(1,0)	(1,0)	(1,0)	(1,0)	(1,0)	(1,0)	(1,0)	
L1D -167>	(1,5)	(167,1)	(0,5)	(2,1)	(1,0)	(1,0)	(1,0)	(1,0)	(1,0)	(1,0)	(1,0)	(1,0)	(1,0)	(1,0)	(1,0)	(1,0)	
L1D -166>	(1,74)	(8,1)	(7,1)	(0,1)	(175,0)	(1,0)	(1,0)	(1,0)	(1,0)	(1,0)	(1,0)	(1,0)	(1,0)	(1,0)	(1,0)	(1,0)	
L1D -165>	(57,99)	(1,3)	(166,1)	(2,1)	(0,2)	(14,0)	(67,0)	(1,0)	(1,0)	(1,0)	(1,0)	(1,0)	(1,0)	(1,0)	(1,0)	(1,0)	
L1D -164>	(3,15)	(4,2)	(2,1)	(7,1)	(125,1)	(155,1)	(1,0)	(1,0)	(1,0)	(1,0)	(1,0)	(1,0)	(1,0)	(1,0)	(1,0)	(1,0)	
L1D -163>	(4,121)	(57,0)	(164,0)	(1,0)	(1,0)	(1,0)	(1,0)	(1,0)	(1,0)	(1,0)	(1,0)	(1,0)	(1,0)	(1,0)	(1,0)	(1,0)	
L1D -162>	(1,125)	(-20,2)	(-22,1)	(-32,1)	(-48,1)	(8,1)	(4,1)	(1,0)	(1,0)	(1,0)	(1,0)	(1,0)	(1,0)	(1,0)	(1,0)	(1,0)	
L1D -161>	(-11,7)	(114,0)	(-44,9)	(1,125)	(-40,0)	(162,0)	(-45,0)	(87,1)	(1,0)	(1,0)	(1,0)	(1,0)	(1,0)	(1,0)	(1,0)	(1,0)	
L1D -160>	(1,59)	(-4,2)	(-1,33)	(-3,1)	(7,3)	(0,1)	(8,2)	(1,0)	(1,0)	(1,0)	(1,0)	(1,0)	(1,0)	(1,0)	(1,0)	(1,0)	
L1D -159>	(82,2)	(-1,2)	(72,1)	(156,1)	(24,1)	(50,2)	(91,1)	(0,27)	(32,1)	(114,2)	(52,1)	(6,1)	(58,1)	(3,1)	(68,1)	(88,1)	
L1D -158>	(2,70)	(7,1)	(59,0)	(5,0)	(1,0)	(1,0)	(1,0)	(1,0)	(1,0)	(1,0)	(1,0)	(1,0)	(1,0)	(1,0)	(1,0)	(1,0)	
L1D -157>	(1,26)	(2,64)	(4,78)	(96,2)	(84,1)	(167,4)	(95,1)	(145,1)	(0,37)	(120,1)	(42,1)	(106,1)	(102,2)	(56,1)	(100,1)	(98,1)	
L1D -156>	(44,2)	(98,2)	(12,12)	(2,8)	(0,39)	(96,2)	(80,2)	(94,2)	(84,1)	(6,1)	(90,1)	(-22,1)	(30,1)	(126,1)	(32,2)	(1,1)	
L1D -155>	(0,20)	(80,1)	(1,24)	(2,84)	(6,1)	(131,10)	(-6,14)	(68,0)	(167,25)	(122,0)	(8,1)	(1,0)	(1,0)	(1,0)	(1,0)	(1,0)	
L1D -154>	(6,65)	(4,12)	(151,28)	(154,27)	(80,1)	(-14,0)	(8,1)	(100,1)	(135,0)	(1,1)	(0,6)	(108,0)	(102,0)	(98,0)	(94,1)	(86,0)	
L1D -153>	(5,121)	(-281,3)	(-81,15)	(4,2)	(6,1)	(8,2)	(-1,2)	(3,1)	(1,0)	(1,0)	(1,0)	(1,0)	(1,0)	(1,0)	(1,0)	(1,0)	
L1D -152>	(2,1)	(87,1)	(89,1)	(7,4)	(90,2)	(105,1)	(1,2)	(6,2)	(8,3)	(-1,1)	(1,0)	(1,0)	(1,0)	(1,0)	(1,0)	(1,0)	
L1D -151>	(0,112)	(-8,118)	(13,121)	(1,88)	(2,39)	(6,30)	(4,2)	(256,1)	(120,1)	(8,1)	(87,1)	(1,0)	(1,0)	(1,0)	(1,0)	(1,0)	
L1D -150>	(4,67)	(8,1)	(2,5)	(6,3)	(-5,2)	(-1,1)	(7,2)	(5,1)	(140,1)	(1,0)	(1,0)	(1,0)	(1,0)	(1,0)	(1,0)	(1,0)	
L1D -149>	(0,38)	(2,110)	(150,0)	(5,2)	(1,9)	(-8,0)	(89,0)	(102,0)	(140,0)	(8,0)	(91,0)	(1,0)	(1,0)	(1,0)	(1,0)	(1,0)	
L1D -148>	(0,36)	(1,77)	(2,94)	(89,1)	(4,2)	(8,1)	(155,1)	(1,0)	(1,0)	(1,0)	(1,0)	(1,0)	(1,0)	(1,0)	(1,0)	(1,0)	
L1D -147>	(2,4)	(156,1)	(-3,1)	(8,1)	(65,1)	(-4,1)	(-14,1)	(1,0)	(1,0)	(1,0)	(1,0)	(1,0)	(1,0)	(1,0)	(1,0)	(1,0)	
L1D -146>	(1,68)	(2,78)	(90,1)	(0,1)	(8,1)	(1,0)	(1,0)	(1,0)	(1,0)	(1,0)	(1,0)	(1,0)	(1,0)	(1,0)	(1,0)	(1,0)	
L1D -145>	(1,84)	(4,105)	(84,1)	(144,0)	(38,0)	(-1,3)	(1,0)	(1,0)	(1,0)	(1,0)	(1,0)	(1,0)	(1,0)	(1,0)	(1,0)	(1,0)	
L1D -144>	(84,116)	(2,8)	(4,2)	(8,2)	(1,2)	(0,1)	(-1,1)	(7,3)	(5,1)	(-14,1)	(1,0)	(1,0)	(1,0)	(1,0)	(1,0)	(1,0)	
L1D -143>	(134,1)	(154,1)	(89,1)	(1,3)	(-2,1)	(8,1)	(79,28)	(1,0)	(1,0)	(1,0)	(1,0)	(1,0)	(1,0)	(1,0)	(1,0)	(1,0)	
L1D -142>	(0,35)	(89,1)	(5,1)	(75,1)	(95,1)	(2,1)	(1,1)	(4,2)	(8,2)	(9,1)	(1,0)	(1,0)	(1,0)	(1,0)	(1,0)	(1,0)	
L1D -141>	(141,96)	(0,1)	(8,1)	(116,92)	(90,1)	(-1,1)	(1,6)	(5,2)	(-95,1)	(1,0)	(1,0)	(1,0)	(1,0)	(1,0)	(1,0)	(1,0)	
L1D -140>	(0,86)	(140,2)	(280,1)	(141,6)	(4,1)	(6,1)	(420,1)	(-138,1)	(138,4)	(1,0)	(1,0)	(1,0)	(1,0)	(1,0)	(1,0)	(1,0)	
L1D -139>	(5,43)	(1,125)	(-1,1)	(-140,1)	(7,2)	(-2,1)	(-8,1)	(1,0)	(1,0)	(1,0)	(1,0)	(1,0)	(1,0)	(1,0)	(1,0)	(1,0)	
L1D -138>	(-34,55)	(-12,56)	(3,1)	(137,2)	(-2,1)	(-8,5)	(4,5)	(144,1)	(89,1)	(1,1)	(140,1)	(138,1)	(139,4)	(141,1)	(0,1)	(136,3)	
L1D -137>	(5,7)	(1,10)	(137,98)	(131,1)	(-6,4)	(2,4)	(-3,1)	(112,5)	(7,91)	(8,1)	(45,0)	(115,3)	(125,0)	(124,0)	(-8,1)	(-110,0)	
L1D -136>	(-14,1)	(8,4)	(89,1)	(6,1)	(2,2)	(4,1)	(1,7)	(-13,1)	(138,1)	(-140,1)	(137,1)	(134,1)	(0,5)	(7,3)	(5,1)	(1,0)	
L1D -135>	(115,99)	(112,91)	(5,9)	(-1,1)	(7,88)	(-6,4)	(1,7)	(55,1)	(4,1)	(-2,1)	(125,1)	(277,0)	(-138,0)	(-136,0)	(1,0)	(1,0)	
L1D -134>	(2,2)	(-5,49)	(132,2)	(-4,18)	(7,1)	(44,1)	(150,1)	(22,1)	(135,2)	(172,1)	(8,1)	(6,2)	(91,1)	(1,1)	(-138,1)	(-2,10)	
L1D -133>	(-6,126)	(-2,5)	(6,1)	(1,4)	(8,3)	(150,1)	(137,1)	(4,1)	(-1,1)	(-136,1)	(-134,1)	(133,1)	(87,1)	(1,0)	(1,0)	(1,0)	
L1D -132>	(-7,100)	(-5,103)	(-4,92)	(2,13)	(470,1)	(1,1)	(0,4)	(117,1)	(7,0)	(-3,1)	(120,0)	(85,0)	(129,2)	(8,1)	(6,0)	(4,0)	
L1D -131>	(0,101)	(1,95)	(142,87)	(117,75)	(23,7)	(2,5)	(-134,1)	(7,2)	(8,1)	(-132,1)	(-1,11)	(501,1)	(133,4)	(143,1)	(87,1)	(1,0)	
L1D -130>	(2,99)	(8,1)	(5,2)	(120,0)	(127,5)	(-3,0)	(105,0)	(-1,0)	(-5,0)	(-134,1)	(0,3)	(-2,0)	(1,0)	(1,0)	(1,0)	(1,0)	
L1D -129>	(4,0)	(-129,0)	(2,92)	(1,0)	(-130,0)	(7,23)	(0,0)	(129,0)	(8,1)	(91,0)	(130,0)	(133,0)	(16,0)	(1,0)	(1,0)	(1,0)	
L1D -128>	(1,35)	(2,41)	(7,6)	(-2,2)	(5,1)	(0,44)	(129,18)	(91,1)	(89,1)	(16,1)	(125,4)	(133,1)	(15,1)	(-132,1)	(-130,1)	(126,1)	
L1D -127>	(5,8)	(7,80)	(-2,1)	(2,17)	(1,2)	(492,3)	(0,0)	(-3,1)	(6,2)	(8,1)	(12,0)	(152,0)	(127,6)	(4,0)	(10,3)	(-130,0)	
L1D -126>	(3,23)	(0,6)	(11,2)	(1,4)	(492,85)	(2,24)	(4,0)	(119,0)	(271,0)	(89,0)	(127,2)	(123,0)	(8,2)	(13,0)	(-1,0)	(126,0)	
L1D -125>	(4,4)	(150,1)	(8,1)	(2,6)	(125,9)	(-2,1)	(0,1)	(-128,1)	(-14,1)	(1,0)	(1,0)	(1,0)	(1,0)	(1,0)	(1,0)	(1,0)	
L1D -124>	(1,2)	(0,3)	(121,4)	(125,10)	(2,15)	(7,1)	(271,2)	(140,1)	(5,1)	(257,4)	(-14,3)	(128,1)	(124,2)	(122,1)	(1,0)	(1,0)	
L1D -123>	(-1,1)	(2,12)	(8,2)	(87,1)	(5,1)	(6,1)	(159,1)	(89,1)	(117,1)	(0,3)	(30,1)	(1,0)	(1,0)	(1,0)	(1,0)	(1,0)	
L1D -122>	(5,23)	(8,1)	(2,74)	(1,1)	(4,2)	(0,0)	(123,0)	(16,0)	(120,0)	(257,0)	(-14,0)	(1,0)	(1,0)	(1,0)	(1,0)	(1,0)	
L1D -121>	(8,107)	(-2,2)	(1,1)	(87,2)	(-124,1)	(123,2)	(-122,1)	(89,1)	(-5,0)	(5,0)	(1,0)	(1,0)	(1,0)	(1,0)	(1,0)	(1,0)	
L1D -120>	(0,7)	(5,4)	(-3,1)	(8,3)	(-2,1)	(271,1)	(257,6)	(-14,1)	(36,1)	(-5,1)	(150,1)	(120,1)	(7,4)	(1,0)	(1,0)	(1,0)	
L1D -119>	(3,122)	(119,11)	(116,1)	(90,1)	(-1,1)	(-122,1)	(-2,1)	(117,4)	(1,1)	(7,1)	(5,1)	(1,0)	(1,0)	(1,0)	(1,0)	(1,0)	
L1D -118>	(1,117)	(4,83)	(-173,69)	(2,5)	(-5,2)	(119,4)	(0,4)	(118,1)	(121,1)	(7,1)	(1,0)	(1,0)	(1,0)	(1,0)	(1,0)	(1,0)	
L1D -117>	(5,114)	(2,112)	(117,113)	(-210,2)	(1,38)	(0,1)	(116,1)	(8,0)	(-3,1)	(10,70)	(4,1)	(-5,1)	(-173,1)	(108,0)	(118,0)	(113,0)	
L1D -116>	(-7,28)	(10,1)	(2,4)	(54,1)	(-14,2)	(257,6)	(120,7)	(8,1)	(89,1)	(-1,1)	(-120,1)	(1,1)	(116,2)	(0,2)	(-6,1)	(1,0)	
L1D -115>	(10,9)	(5,69)	(-5,4)	(-6,1)	(105,1)	(-210,2)	(-8,30)	(6,16)	(0,0)	(120,0)	(-2,1)	(1,1)	(-16,1)	(1,0)	(1,0)	(1,0)	
L1D -114>	(-7,123)	(0,10)	(2,5)	(-173,3)	(-3,2)	(5,7)	(-9,5)	(114,5)	(-5,2)	(111,4)	(8,3)	(-8,1)	(257,6)	(1,8)	(91,1)	(34,1)	
L1D -113>	(8,3)	(105,1)	(6,79)	(1,96)	(-5,39)	(-114,0)	(-1,1)	(5,2)	(0,9)	(85,0)	(-173,0)	(2,0)	(1,0)	(1,0)	(1,0)	(1,0)	
L1D -112>	(0,9)	(-9,63)	(5,123)	(2,5)	(7,2)	(62,13)	(8,2)	(106,2)	(1,3)	(107,1)	(-5,2)	(119,1)	(109,0)	(115,0)	(4,3)	(6,0)	
L1D -111>	(4,1)	(1,110)	(5,104)	(-2,1)	(0,1)	(-5,0)	(87,1)	(2,0)	(112,0)	(89,1)	(1,0)	(1,0)	(1,0)	(1,0)	(1,0)	(1,0)	
L1D -110>	(0,123)	(4,90)	(2,105)	(106,95)	(257,1)	(50,1)	(-5,1)	(-4,1)	(1,4)	(-9,3)	(-46,1)	(394,1)	(7,1)	(1,0)	(1,0)	(1,0)	
L1D -109>	(134,0)	(-6,0)	(8,2)	(115,0)	(107,111)	(111,22)	(114,0)	(1,23)	(2,0)	(0,1)	(85,0)	(108,0)	(-23,0)	(95,0)	(1,0)	(1,0)	
L1D -108>	(1,18)	(156,1)	(105,1)	(-12,41)	(145,0)	(235,0)	(230,0)	(108,114)	(106,44)	(-10,2)	(2,2)	(-23,15)	(-5,0)	(0,1)	(110,0)	(109,32)	
L1D -107>	(5,0)	(-4,34)	(1,109)	(107,95)	(-113,37)	(2,2)	(-3,0)	(4,0)	(-8,34)	(-6,0)	(-5,0)	(109,0)	(1,0)	(1,0)	(1,0)	(1,0)	
L1D -106>	(-7,88)	(2,117)	(-5,16)	(106,96)	(110,60)	(257,2)	(156,42)	(55,1)	(124,1)	(-154,1)	(1,1)	(-10,70)	(0,13)	(105,0)	(271,0)	(108,5)	
L1D -105>	(263,2)	(256,1)	(0,2)	(8,2)	(271,1)	(-5,1)	(-10,2)	(-3,2)	(107,1)	(20,1)	(108,1)	(103,1)	(-2,1)	(-1,2)	(-24,1)	(5,1)	
L1D -104>	(1,3)	(0,6)	(5,1)	(155,1)	(106,1)	(-14,3)	(-3,1)	(2,7)	(85,1)	(271,1)	(105,5)	(9,1)	(7,7)	(257,5)	(120,1)	(32,1)	
L1D -103>	(2,8)	(87,7)	(261,2)	(106,2)	(1,3)	(102,1)	(-43,1)	(0,4)	(-2,1)	(89,1)	(10,1)	(35,1)	(92,1)	(1,0)	(1,0)	(1,0)	
L1D -102>	(101,4)	(257,6)	(-71,1)	(2,2)	(271,1)	(-3,4)	(-2,4)	(89,1)	(44,2)	(8,2)	(-14,2)	(64,2)	(115,1)	(-18,1)	(-24,1)	(-35,1)	
L1D -101>	(87,100)	(259,1)	(104,0)	(-2,0)	(2,0)	(271,0)	(4,0)	(5,0)	(45,0)	(89,1)	(-1,1)	(1,2)	(90,0)	(1,0)	(1,0)	(1,0)	
L1D -100>	(98,102)	(2,2)	(257,4)	(5,1)	(104,0)	(255,0)	(253,0)	(1,1)	(259,0)	(-12,0)	(10,1)	(271,0)	(-10,0)	(4,0)	(135,0)	(0,2)	
L1D -99>	(96,1)	(101,114)	(114,1)	(0,0)	(-2,0)	(3,0)	(6,0)	(1,0)	(1,0)	(1,0)	(1,0)	(1,0)	(1,0)	(1,0)	(1,0)	(1,0)	
L1D -98>	(102,2)	(96,1)	(209,1)	(-2,1)	(1,1)	(271,2)	(7,1)	(257,6)	(8,2)	(89,1)	(81,1)	(79,1)	(0,1)	(-1,2)	(-102,1)	(99,1)	
L1D -97>	(1,82)	(2,0)	(0,0)	(-5,0)	(8,0)	(-6,0)	(-3,0)	(1,0)	(1,0)	(1,0)	(1,0)	(1,0)	(1,0)	(1,0)	(1,0)	(1,0)	
L1D -96>	(8,2)	(4,1)	(251,1)	(113,1)	(95,1)	(0,2)	(271,1)	(97,1)	(7,4)	(257,1)	(1,2)	(96,2)	(89,1)	(5,5)	(-11,1)	(-60,1)	
L1D -95>	(5,104)	(-3,1)	(-17,1)	(-1,1)	(2,1)	(-87,1)	(104,1)	(-5,1)	(95,0)	(4,0)	(1,2)	(-8,1)	(-24,0)	(0,2)	(-6,0)	(-11,0)	
L1D -94>	(-42,121)	(5,2)	(94,3)	(408,1)	(90,1)	(-1,1)	(2,2)	(91,1)	(-98,1)	(7,1)	(0,1)	(95,1)	(-171,1)	(1,0)	(1,0)	(1,0)	
L1D -93>	(10,114)	(-33,68)	(-4,1)	(88,1)	(45,12)	(0,1)	(2,3)	(102,6)	(95,1)	(-2,1)	(1,2)	(1,0)	(1,0)	(1,0)	(1,0)	(1,0)	
L1D -92>	(91,2)	(0,4)	(2,62)	(96,2)	(93,1)	(-3,6)	(-2,2)	(34,1)	(271,1)	(89,2)	(1,2)	(74,3)	(257,6)	(7,1)	(55,1)	(-4,5)	
L1D -91>	(1,17)	(2,1)	(0,6)	(120,88)	(5,87)	(7,1)	(10,1)	(93,3)	(100,1)	(89,1)	(90,10)	(-1,1)	(60,0)	(1,0)	(1,0)	(1,0)	
L1D -90>	(2,29)	(-4,18)	(5,1)	(-110,1)	(-151,0)	(135,0)	(90,126)	(-14,0)	(92,0)	(257,0)	(1,0)	(-30,0)	(0,2)	(271,0)	(88,0)	(253,0)	
L1D -89>	(0,7)	(91,12)	(-1,28)	(6,3)	(-115,1)	(247,2)	(-19,5)	(86,4)	(90,1)	(1,2)	(8,3)	(-110,1)	(9,2)	(-64,1)	(54,1)	(-2,1)	
L1D -88>	(2,3)	(-110,94)	(6,103)	(88,100)	(8,3)	(86,1)	(92,1)	(-1,1)	(1,3)	(257,2)	(73,7)	(271,1)	(0,4)	(-92,1)	(89,1)	(7,3)	
L1D -87>	(-3,2)	(-19,101)	(86,1)	(245,1)	(-4,3)	(0,1)	(-1,1)	(87,3)	(1,2)	(162,1)	(89,1)	(40,0)	(1,0)	(1,0)	(1,0)	(1,0)	
L1D -86>	(2,91)	(-110,88)	(4,87)	(3,1)	(40,1)	(192,1)	(5,1)	(8,2)	(87,1)	(86,1)	(-15,3)	(1,2)	(1,0)	(1,0)	(1,0)	(1,0)	
L1D -85>	(1,5)	(90,118)	(-3,3)	(-111,2)	(192,5)	(243,2)	(0,3)	(2,5)	(94,3)	(85,1)	(4,1)	(-21,1)	(8,1)	(84,1)	(20,1)	(73,1)	
L1D -84>	(2,4)	(1,30)	(-15,27)	(242,28)	(0,1)	(73,28)	(7,0)	(81,0)	(-1,0)	(88,0)	(34,106)	(86,0)	(234,99)	(83,0)	(65,0)	(45,0)	
L1D -83>	(230,121)	(79,121)	(84,1)	(75,1)	(8,1)	(115,1)	(63,1)	(1,1)	(95,1)	(92,2)	(2,1)	(3,1)	(82,1)	(1,0)	(1,0)	(1,0)	
L1D -82>	(-4,3)	(81,3)	(0,6)	(106,1)	(247,1)	(-2,6)	(-3,4)	(171,1)	(241,1)	(86,1)	(-14,4)	(257,7)	(64,1)	(44,1)	(54,1)	(76,1)	
L1D -81>	(30,8)	(57,13)	(79,4)	(-4,26)	(76,2)	(63,29)	(234,127)	(34,91)	(2,0)	(0,0)	(1,1)	(1,0)	(1,0)	(1,0)	(1,0)	(1,0)	
L1D -80>	(-84,94)	(19,7)	(-3,2)	(77,1)	(80,3)	(0,10)	(2,3)	(55,1)	(8,2)	(-14,2)	(81,3)	(257,1)	(76,0)	(79,0)	(271,0)	(7,3)	
L1D -79>	(0,122)	(-2,60)	(2,1)	(9,1)	(234,7)	(76,2)	(-1,1)	(1,2)	(-40,1)	(14,2)	(1,0)	(1,0)	(1,0)	(1,0)	(1,0)	(1,0)	
L1D -78>	(77,2)	(1,3)	(82,2)	(7,2)	(79,1)	(235,1)	(233,1)	(80,1)	(257,6)	(271,2)	(8,2)	(96,1)	(5,1)	(19,1)	(75,2)	(0,5)	
L1D -77>	(33,121)	(3,121)	(14,95)	(19,2)	(-3,4)	(12,1)	(-1,1)	(5,1)	(2,0)	(1,4)	(77,0)	(0,24)	(271,0)	(1,0)	(1,0)	(1,0)	
L1D -76>	(2,120)	(0,5)	(33,1)	(12,1)	(65,2)	(75,1)	(-84,3)	(-1,1)	(76,3)	(1,3)	(77,1)	(-80,1)	(1,0)	(1,0)	(1,0)	(1,0)	
L1D -75>	(-3,7)	(0,3)	(1,18)	(77,1)	(84,2)	(75,1)	(233,2)	(10,1)	(271,1)	(8,1)	(-84,1)	(-2,1)	(65,1)	(85,1)	(372,1)	(1,0)	
L1D -74>	(3,14)	(65,59)	(2,74)	(0,4)	(76,4)	(-171,1)	(1,2)	(75,1)	(271,1)	(-14,1)	(33,13)	(-3,0)	(257,1)	(55,0)	(85,0)	(5,1)	
L1D -73>	(1,98)	(-2,11)	(74,10)	(15,1)	(8,2)	(-14,1)	(82,3)	(9,5)	(76,1)	(0,1)	(271,0)	(119,0)	(107,0)	(393,0)	(1,0)	(1,0)	
L1D -72>	(76,89)	(1,2)	(0,6)	(-115,4)	(5,25)	(-3,3)	(71,1)	(257,2)	(34,1)	(7,3)	(8,2)	(-14,1)	(66,1)	(74,0)	(-71,0)	(14,0)	
L1D -71>	(66,97)	(9,93)	(-2,2)	(0,3)	(2,5)	(1,3)	(-14,8)	(4,1)	(-73,1)	(-74,1)	(8,0)	(271,0)	(5,1)	(1,0)	(1,0)	(1,0)	
L1D -70>	(-115,97)	(0,26)	(-3,1)	(70,127)	(64,22)	(1,3)	(8,1)	(-14,1)	(-1,1)	(2,2)	(231,0)	(-15,0)	(7,1)	(5,0)	(30,0)	(69,0)	
L1D -69>	(0,5)	(2,2)	(3,2)	(-3,4)	(72,2)	(66,1)	(9,16)	(227,2)	(271,1)	(1,3)	(69,1)	(4,1)	(94,1)	(1,0)	(1,0)	(1,0)	
L1D -68>	(-4,3)	(257,5)	(-14,4)	(4,4)	(227,2)	(60,1)	(1,5)	(-155,1)	(8,3)	(67,1)	(271,3)	(69,2)	(-65,3)	(65,1)	(-2,2)	(-5,1)	
L1D -67>	(4,1)	(1,62)	(6,7)	(-3,2)	(-88,1)	(66,3)	(225,1)	(70,1)	(271,1)	(8,1)	(2,3)	(50,1)	(13,1)	(0,1)	(1,0)	(1,0)	
L1D -66>	(4,101)	(-65,99)	(-4,96)	(1,24)	(2,9)	(61,6)	(63,1)	(257,3)	(6,1)	(0,1)	(-1,1)	(45,1)	(221,0)	(-14,0)	(8,0)	(65,0)	
L1D -65>	(1,117)	(6,102)	(0,7)	(2,1)	(-3,2)	(-10,1)	(-2,2)	(74,2)	(8,2)	(50,1)	(-1,1)	(60,1)	(64,1)	(67,0)	(90,0)	(75,1)	
L1D -64>	(1,1)	(2,71)	(-1,1)	(0,0)	(61,0)	(-171,0)	(7,1)	(8,0)	(257,0)	(-14,0)	(25,0)	(15,0)	(95,0)	(68,0)	(72,0)	(65,0)	
L1D -63>	(17,96)	(5,96)	(47,119)	(68,93)	(-9,1)	(-1,1)	(8,1)	(23,1)	(2,3)	(-8,90)	(107,1)	(-88,3)	(66,0)	(0,1)	(12,1)	(1,0)	
L1D -62>	(47,11)	(19,15)	(1,29)	(0,121)	(94,1)	(62,0)	(-1,0)	(4,0)	(111,7)	(67,2)	(-3,0)	(-2,0)	(44,0)	(1,0)	(1,0)	(1,0)	
L1D -61>	(271,2)	(4,1)	(50,1)	(0,4)	(9,2)	(219,2)	(64,1)	(8,3)	(14,1)	(1,2)	(49,1)	(-1,1)	(1,0)	(1,0)	(1,0)	(1,0)	
L1D -60>	(60,32)	(0,89)	(257,5)	(-1,6)	(1,3)	(-10,2)	(162,1)	(30,3)	(-3,2)	(70,1)	(40,4)	(7,1)	(219,1)	(155,1)	(63,1)	(-14,2)	
L1D -59>	(388,21)	(0,11)	(54,8)	(3,3)	(1,13)	(41,1)	(2,57)	(56,3)	(6,1)	(63,2)	(60,3)	(9,20)	(8,1)	(85,90)	(217,2)	(109,1)	
L1D -58>	(0,22)	(19,21)	(271,2)	(1,32)	(-1,3)	(257,5)	(-14,3)	(223,1)	(66,1)	(8,6)	(73,1)	(62,1)	(217,1)	(155,1)	(64,1)	(-12,1)	
L1D -57>	(230,2)	(0,1)	(143,36)	(79,71)	(57,72)	(234,35)	(9,36)	(16,71)	(-13,60)	(-1,1)	(-3,0)	(1,2)	(1,0)	(1,0)	(1,0)	(1,0)	
L1D -56>	(0,8)	(271,1)	(-88,75)	(53,5)	(257,1)	(-2,4)	(2,5)	(-17,5)	(7,3)	(66,0)	(8,5)	(441,0)	(60,1)	(215,0)	(155,0)	(-14,1)	
L1D -55>	(1,101)	(0,41)	(33,47)	(8,1)	(12,1)	(-1,2)	(5,1)	(105,1)	(2,1)	(1,0)	(1,0)	(1,0)	(1,0)	(1,0)	(1,0)	(1,0)	
L1D -54>	(0,14)	(41,127)	(1,12)	(10,5)	(51,2)	(19,7)	(2,42)	(7,10)	(55,2)	(8,1)	(32,95)	(-193,13)	(4,1)	(5,1)	(59,1)	(-1,2)	
L1D -53>	(-2,3)	(6,99)	(54,1)	(81,1)	(19,3)	(32,56)	(1,124)	(41,40)	(7,1)	(5,1)	(-20,1)	(0,1)	(65,1)	(-171,1)	(62,1)	(1,0)	
L1D -52>	(38,3)	(-3,4)	(49,8)	(-2,8)	(8,2)	(64,1)	(94,1)	(51,4)	(1,3)	(0,19)	(24,1)	(7,1)	(211,1)	(56,1)	(155,1)	(54,2)	
L1D -51>	(41,65)	(-4,1)	(0,21)	(9,96)	(54,1)	(209,2)	(69,1)	(62,1)	(1,3)	(51,1)	(8,2)	(271,1)	(2,1)	(-204,2)	(46,1)	(-1,2)	
L1D -50>	(2,1)	(3,15)	(41,10)	(38,27)	(0,6)	(6,0)	(-3,0)	(50,3)	(11,0)	(7,0)	(49,0)	(1,0)	(40,0)	(-62,115)	(8,0)	(439,0)	
L1D -49>	(0,29)	(47,3)	(1,118)	(9,16)	(61,7)	(17,5)	(7,32)	(44,90)	(-58,1)	(2,1)	(3,1)	(54,1)	(53,1)	(13,1)	(41,2)	(35,1)	
L1D -48>	(8,8)	(0,32)	(1,25)	(49,7)	(-2,8)	(-1,9)	(13,3)	(7,6)	(60,1)	(-14,2)	(203,1)	(36,1)	(5,3)	(-4,1)	(47,1)	(45,10)	
L1D -47>	(2,4)	(47,81)	(0,28)	(17,51)	(61,51)	(-3,7)	(8,1)	(3,1)	(-6,75)	(13,78)	(1,10)	(5,77)	(9,7)	(40,1)	(-2,1)	(-4,2)	
L1D -46>	(46,121)	(-6,121)	(1,2)	(0,4)	(7,3)	(8,1)	(-1,1)	(-4,38)	(50,1)	(5,1)	(35,1)	(45,1)	(-14,0)	(1,0)	(1,0)	(1,0)	
L1D -45>	(4,53)	(0,24)	(45,19)	(-2,2)	(48,18)	(8,18)	(1,7)	(-5,1)	(-14,1)	(-3,1)	(-11,0)	(9,70)	(43,0)	(-75,0)	(-1,0)	(35,0)	
L1D -44>	(23,76)	(8,1)	(42,1)	(7,2)	(45,1)	(-10,5)	(1,57)	(47,1)	(0,5)	(-171,1)	(2,3)	(-1,1)	(54,2)	(-12,0)	(51,0)	(44,3)	
L1D -43>	(-2,1)	(8,1)	(9,1)	(1,71)	(44,1)	(-5,2)	(22,1)	(0,3)	(25,2)	(3,1)	(45,1)	(35,1)	(2,1)	(1,0)	(1,0)	(1,0)	
L1D -42>	(41,25)	(2,3)	(8,1)	(0,62)	(32,95)	(-5,9)	(-3,0)	(42,10)	(43,1)	(-2,0)	(45,1)	(7,0)	(1,6)	(4,0)	(1,0)	(1,0)	
L1D -41>	(41,8)	(2,5)	(-5,26)	(5,27)	(-33,105)	(-6,5)	(32,13)	(-2,0)	(8,0)	(9,0)	(49,1)	(40,1)	(-36,0)	(-1,0)	(1,14)	(1,0)	
L1D -40>	(0,74)	(40,90)	(56,1)	(8,1)	(7,1)	(45,1)	(44,0)	(-4,14)	(-2,0)	(1,0)	(27,0)	(30,0)	(20,0)	(-13,0)	(32,18)	(38,0)	
L1D -39>	(-1,3)	(1,32)	(40,65)	(15,2)	(-2,12)	(0,89)	(18,1)	(9,7)	(37,1)	(2,32)	(3,3)	(-5,1)	(8,1)	(24,1)	(27,3)	(-4,1)	
L1D -38>	(1,9)	(36,81)	(-2,0)	(-10,1)	(-16,0)	(38,12)	(33,12)	(0,1)	(-7,0)	(2,0)	(3,0)	(-27,0)	(8,1)	(-1,1)	(40,0)	(48,0)	
L1D -37>	(2,7)	(15,1)	(1,86)	(0,3)	(18,96)	(37,34)	(20,1)	(8,2)	(-3,1)	(-8,1)	(5,1)	(47,1)	(3,40)	(-1,1)	(36,1)	(10,0)	
L1D -36>	(36,35)	(3,3)	(38,11)	(-2,0)	(1,3)	(-17,127)	(2,69)	(29,28)	(-120,0)	(-1,1)	(57,0)	(0,0)	(11,0)	(1,0)	(1,0)	(1,0)	
L1D -35>	(1,90)	(40,48)	(42,1)	(2,7)	(-8,73)	(5,74)	(35,1)	(71,71)	(-31,1)	(25,4)	(-2,3)	(-151,1)	(-1,2)	(0,3)	(41,1)	(19,1)	
L1D -34>	(1,109)	(-3,1)	(57,34)	(2,25)	(0,5)	(8,2)	(-89,1)	(-2,1)	(46,1)	(6,1)	(20,1)	(40,1)	(-1,3)	(5,1)	(1,0)	(1,0)	
L1D -33>	(23,15)	(-2,52)	(1,95)	(38,93)	(42,25)	(2,44)	(28,13)	(75,73)	(30,19)	(9,9)	(19,1)	(32,105)	(-5,4)	(5,3)	(6,3)	(43,17)	
L1D -32>	(0,103)	(33,27)	(-173,1)	(14,1)	(41,0)	(-4,12)	(-5,12)	(40,51)	(30,12)	(8,1)	(32,29)	(7,0)	(4,0)	(1,1)	(298,0)	(42,8)	
L1D -31>	(41,42)	(0,70)	(5,86)	(14,85)	(8,1)	(2,1)	(1,27)	(31,1)	(18,1)	(-86,1)	(-2,5)	(-4,11)	(9,3)	(-6,0)	(11,0)	(1,0)	
L1D -30>	(30,70)	(0,17)	(1,62)	(217,21)	(-6,46)	(2,94)	(-5,1)	(8,1)	(28,1)	(35,1)	(40,0)	(32,0)	(14,0)	(23,13)	(3,0)	(-1,1)	
L1D -29>	(0,92)	(9,9)	(18,84)	(22,2)	(30,1)	(-1,14)	(1,10)	(2,1)	(35,1)	(-54,1)	(8,1)	(5,4)	(-34,1)	(33,2)	(-11,7)	(4,1)	
L1D -28>	(25,70)	(-5,78)	(-4,3)	(132,82)	(2,82)	(33,76)	(-1,32)	(-2,9)	(8,5)	(39,3)	(13,1)	(0,5)	(1,44)	(145,1)	(26,2)	(80,1)	
L1D -27>	(1,101)	(9,1)	(-1,1)	(26,24)	(-3,7)	(30,1)	(113,1)	(10,2)	(2,4)	(6,2)	(0,6)	(4,1)	(13,1)	(8,2)	(24,1)	(14,1)	
L1D -26>	(2,3)	(-4,85)	(1,26)	(0,2)	(5,3)	(36,83)	(15,1)	(-24,1)	(24,1)	(-1,5)	(8,3)	(197,1)	(35,1)	(25,1)	(26,1)	(-2,1)	
L1D -25>	(1,72)	(15,71)	(25,60)	(2,4)	(-11,1)	(10,2)	(-1,2)	(5,1)	(-2,3)	(30,0)	(-10,0)	(-5,1)	(-362,0)	(-3,1)	(28,0)	(34,0)	
L1D -24>	(22,45)	(28,55)	(5,118)	(12,58)	(-5,56)	(2,13)	(9,23)	(-1,6)	(8,7)	(197,51)	(-4,60)	(17,55)	(-18,5)	(0,3)	(6,1)	(1,23)	
L1D -23>	(42,0)	(2,10)	(8,9)	(5,9)	(-2,0)	(10,0)	(26,9)	(3,0)	(23,85)	(17,0)	(0,0)	(1,1)	(24,0)	(22,0)	(-5,0)	(7,0)	
L1D -22>	(1,106)	(209,14)	(21,76)	(22,93)	(23,84)	(204,15)	(12,1)	(-21,23)	(0,25)	(225,68)	(5,74)	(2,83)	(271,3)	(-4,72)	(16,6)	(-1,23)	
L1D -21>	(9,93)	(10,72)	(38,5)	(-2,39)	(0,22)	(37,15)	(2,77)	(1,94)	(5,20)	(15,1)	(39,10)	(42,72)	(-11,16)	(24,8)	(40,22)	(225,4)	
L1D -20>	(0,118)	(2,4)	(4,28)	(16,30)	(5,32)	(20,52)	(1,33)	(70,20)	(26,25)	(13,75)	(204,58)	(-115,1)	(9,30)	(-1,1)	(12,26)	(-5,31)	
L1D -19>	(-21,9)	(1,45)	(16,13)	(-10,1)	(23,1)	(9,2)	(2,38)	(11,43)	(-4,34)	(6,63)	(5,110)	(26,35)	(31,33)	(17,70)	(8,36)	(77,32)	
L1D -18>	(0,4)	(47,0)	(-115,22)	(6,24)	(1,38)	(2,75)	(-10,0)	(8,1)	(17,2)	(21,0)	(-1,5)	(5,2)	(20,0)	(-137,1)	(-2,0)	(98,0)	
L1D -17>	(-82,0)	(16,0)	(1,31)	(47,0)	(17,67)	(23,37)	(0,0)	(-5,8)	(5,10)	(-21,0)	(9,8)	(8,8)	(2,0)	(13,4)	(3,67)	(7,0)	
L1D -16>	(1,1)	(8,2)	(3,110)	(7,0)	(22,12)	(15,0)	(5,73)	(2,6)	(-13,12)	(4,12)	(6,12)	(-35,13)	(-5,12)	(-12,13)	(-2,0)	(20,12)	
L1D -15>	(-263,13)	(5,24)	(41,20)	(2,116)	(30,19)	(4,39)	(136,19)	(166,19)	(8,20)	(-5,20)	(-207,20)	(15,19)	(14,20)	(9,19)	(24,1)	(1,5)	
L1D -14>	(204,9)	(13,1)	(1,30)	(4,7)	(-21,4)	(14,16)	(0,14)	(8,88)	(-2,2)	(5,66)	(-9,21)	(-16,21)	(2,2)	(50,2)	(-11,3)	(22,21)	
L1D -13>	(1,78)	(-36,59)	(3,12)	(8,28)	(7,45)	(2,30)	(361,1)	(19,29)	(11,28)	(6,92)	(-8,15)	(5,60)	(-5,30)	(-59,15)	(18,30)	(64,6)	
L1D -12>	(1,55)	(2,59)	(8,33)	(-2,1)	(-106,1)	(-39,0)	(329,16)	(15,1)	(27,16)	(7,85)	(6,68)	(41,16)	(-5,34)	(14,18)	(5,86)	(35,15)	
L1D -11>	(2,51)	(0,91)	(11,31)	(1,79)	(271,12)	(10,14)	(13,18)	(24,13)	(7,57)	(-8,9)	(5,111)	(16,14)	(6,15)	(-5,15)	(45,15)	(-115,5)	
L1D -10>	(2,100)	(192,1)	(-20,6)	(0,8)	(1,19)	(28,7)	(-106,6)	(15,21)	(4,2)	(-15,6)	(116,12)	(-326,6)	(14,8)	(5,42)	(-29,6)	(10,19)	
L1D -9>	(-66,0)	(1,79)	(5,22)	(-5,5)	(4,26)	(-16,3)	(-20,3)	(86,2)	(2,2)	(15,21)	(-101,3)	(9,4)	(-4,14)	(7,7)	(-28,3)	(-137,3)	
L1D -8>	(2,4)	(-11,20)	(0,4)	(-32,31)	(54,9)	(-1,1)	(7,8)	(13,28)	(8,113)	(12,20)	(-6,19)	(-5,40)	(-325,10)	(-19,9)	(-210,9)	(4,40)	
L1D -7>	(1,12)	(15,1)	(19,11)	(6,9)	(7,33)	(-5,96)	(0,3)	(-9,10)	(9,8)	(24,11)	(-13,1)	(-12,10)	(344,10)	(2,107)	(11,114)	(5,49)	
L1D -6>	(-5,27)	(1,46)	(6,73)	(9,17)	(-13,4)	(2,17)	(5,32)	(-17,12)	(-244,1)	(-4,47)	(30,4)	(-7,14)	(4,20)	(-10,4)	(-8,9)	(-9,13)	
L1D -5>	(10,6)	(-4,1)	(6,6)	(5,82)	(-9,5)	(-5,35)	(1,63)	(2,90)	(-336,3)	(-6,5)	(-13,3)	(12,3)	(-22,3)	(-73,3)	(11,5)	(-149,3)	
L1D -4>	(4,127)	(23,1)	(1,32)	(-4,14)	(0,10)	(-1,6)	(-7,3)	(-5,7)	(172,3)	(17,7)	(2,116)	(-17,3)	(8,20)	(-106,3)	(9,7)	(-13,3)	
L1D -3>	(-11,7)	(-81,1)	(-5,2)	(5,1)	(-12,0)	(1,91)	(9,1)	(11,0)	(271,0)	(2,0)	(3,0)	(8,1)	(-2,0)	(-6,1)	(-40,0)	(-7,0)	
L1D -2>	(1,15)	(76,1)	(0,16)	(2,72)	(9,5)	(-36,3)	(-41,1)	(6,0)	(-11,5)	(-43,0)	(-286,0)	(5,1)	(62,0)	(32,0)	(-108,0)	(107,1)	
L1D -1>	(4,1)	(1,127)	(3,1)	(-63,1)	(-1,5)	(172,1)	(9,1)	(0,12)	(-20,1)	(5,1)	(107,2)	(-108,1)	(-136,1)	(8,1)	(-5,2)	(-72,0)	
L1D 0>	(0,101)	(-301,1)	(-93,1)	(2,1)	(-258,1)	(72,1)	(1,2)	(-7,1)	(129,1)	(-184,0)	(128,0)	(32,0)	(40,0)	(-4,1)	(-17,0)	(208,0)	
L1D 1>	(8,30)	(4,33)	(7,85)	(1,103)	(5,27)	(-10,8)	(-1,55)	(-19,1)	(2,17)	(-6,21)	(-11,6)	(-5,3)	(-2,4)	(0,7)	(3,6)	(-4,4)	
L1D 2>	(-2,62)	(4,11)	(-7,26)	(8,45)	(2,50)	(1,85)	(6,54)	(-81,12)	(-6,80)	(-38,14)	(3,94)	(-4,24)	(52,1)	(5,12)	(-13,17)	(43,17)	
L1D 3>	(1,45)	(20,6)	(-4,13)	(0,34)	(7,84)	(-7,39)	(-84,45)	(8,25)	(-9,16)	(-5,36)	(6,12)	(3,6)	(13,39)	(-15,1)	(5,62)	(4,6)	
L1D 4>	(0,21)	(2,80)	(4,108)	(-13,5)	(19,1)	(6,3)	(-4,96)	(8,17)	(-19,5)	(5,36)	(-9,12)	(-10,11)	(7,72)	(-5,11)	(312,3)	(9,2)	
L1D 5>	(-6,10)	(-5,71)	(1,89)	(-11,8)	(5,53)	(7,8)	(-9,19)	(2,62)	(-13,12)	(4,16)	(-10,41)	(3,61)	(6,17)	(8,17)	(-24,5)	(9,1)	
L1D 6>	(1,54)	(-131,1)	(-14,6)	(-6,57)	(8,44)	(0,4)	(7,4)	(-1,10)	(94,3)	(-423,3)	(-11,13)	(6,10)	(-12,10)	(-20,7)	(9,6)	(2,98)	
L1D 7>	(-7,3)	(-129,2)	(-40,1)	(9,1)	(8,2)	(-16,1)	(-15,3)	(3,3)	(1,122)	(-118,1)	(17,1)	(2,2)	(-77,1)	(175,1)	(-19,2)	(-12,5)	
L1D 8>	(5,20)	(-84,1)	(-122,1)	(-53,1)	(1,3)	(4,4)	(2,14)	(8,90)	(-19,2)	(-4,15)	(7,14)	(18,1)	(-12,3)	(-13,6)	(6,17)	(-8,14)	
L1D 9>	(352,1)	(1,68)	(4,17)	(-9,17)	(0,17)	(-38,7)	(5,122)	(2,56)	(22,5)	(-15,15)	(-6,14)	(337,9)	(-4,33)	(-28,9)	(-5,82)	(7,30)	
L1D 10>	(-22,3)	(-21,12)	(-3,17)	(-11,6)	(-6,30)	(0,60)	(-44,5)	(-20,28)	(-4,1)	(-10,106)	(28,3)	(5,65)	(1,85)	(-7,35)	(17,33)	(2,44)	
L1D 11>	(7,0)	(-11,37)	(-1,0)	(0,95)	(1,2)	(260,21)	(2,46)	(-15,11)	(4,10)	(-6,22)	(-8,21)	(-10,0)	(-4,10)	(5,11)	(13,10)	(-9,1)	
L1D 12>	(2,66)	(1,31)	(-62,5)	(4,15)	(32,5)	(-4,19)	(-7,20)	(-9,0)	(0,23)	(31,19)	(5,24)	(-5,19)	(-2,1)	(-1,3)	(41,5)	(-19,14)	
L1D 13>	(-13,67)	(-16,107)	(258,10)	(107,1)	(57,26)	(6,12)	(5,11)	(4,11)	(7,17)	(2,47)	(-8,12)	(1,37)	(-9,22)	(-7,24)	(-19,11)	(-84,12)	
L1D 14>	(-14,18)	(-12,4)	(1,96)	(18,1)	(-6,1)	(-13,3)	(-7,2)	(6,20)	(33,21)	(-9,64)	(5,22)	(-5,22)	(-8,44)	(2,68)	(-30,22)	(7,21)	
L1D 15>	(-6,10)	(-25,0)	(-9,0)	(1,86)	(6,9)	(5,9)	(-20,8)	(-71,0)	(-7,10)	(14,8)	(132,8)	(-15,10)	(0,9)	(348,9)	(4,10)	(-13,1)	
L1D 16>	(1,43)	(0,2)	(-7,3)	(-10,1)	(3,2)	(2,9)	(-5,37)	(-14,3)	(9,35)	(18,38)	(4,35)	(-11,77)	(-16,3)	(-21,39)	(5,38)	(-6,39)	
L1D 17>	(0,69)	(-14,0)	(2,7)	(-8,23)	(-11,8)	(-13,7)	(1,1)	(87,7)	(-71,7)	(-12,16)	(5,8)	(-15,0)	(-2,0)	(-6,0)	(6,2)	(-5,7)	
L1D 18>	(-26,41)	(-12,85)	(1,70)	(-209,42)	(2,49)	(-19,1)	(-22,1)	(-10,37)	(-5,43)	(4,1)	(-87,2)	(0,1)	(-1,1)	(-9,41)	(38,0)	(-3,1)	
L1D 19>	(-65,0)	(-8,26)	(-7,8)	(-29,16)	(107,0)	(1,70)	(-17,2)	(81,30)	(2,62)	(11,29)	(-14,30)	(5,31)	(193,0)	(0,0)	(9,1)	(-40,1)	
L1D 20>	(184,4)	(-56,2)	(0,13)	(-30,8)	(2,68)	(-5,1)	(-11,0)	(-20,70)	(-21,5)	(50,5)	(-7,5)	(-6,1)	(-26,2)	(1,1)	(-1,1)	(6,0)	
L1D 21>	(1,110)	(-22,99)	(174,4)	(0,26)	(-3,3)	(-27,1)	(6,55)	(9,1)	(-12,2)	(-17,16)	(18,1)	(-178,1)	(-19,1)	(14,1)	(1,0)	(1,0)	
L1D 22>	(1,64)	(-22,91)	(0,20)	(-5,24)	(4,9)	(-30,14)	(107,75)	(-18,70)	(-9,70)	(-178,1)	(14,73)	(-24,6)	(-2,3)	(2,9)	(-1,11)	(8,12)	
L1D 23>	(-1,2)	(9,0)	(0,13)	(-177,0)	(-9,0)	(10,0)	(1,28)	(-20,21)	(-5,0)	(-301,0)	(-23,84)	(-10,0)	(2,0)	(174,6)	(14,0)	(7,0)	
L1D 24>	(10,82)	(-4,2)	(-5,89)	(-9,80)	(1,21)	(-33,16)	(0,4)	(6,2)	(-2,3)	(-22,1)	(-13,1)	(-15,35)	(-26,2)	(12,1)	(-18,1)	(-8,1)	
L1D 25>	(13,69)	(5,79)	(0,21)	(110,79)	(-25,79)	(-35,3)	(1,12)	(-301,57)	(-15,2)	(-10,1)	(-132,1)	(107,76)	(-30,3)	(-23,2)	(-3,3)	(8,1)	
L1D 26>	(-135,113)	(2,127)	(-1,6)	(0,17)	(-29,11)	(-25,7)	(1,116)	(5,112)	(-9,108)	(-7,111)	(-33,19)	(-28,8)	(3,5)	(8,1)	(10,17)	(-4,2)	
L1D 27>	(3,96)	(-36,3)	(1,106)	(-24,104)	(-33,3)	(-26,3)	(-20,1)	(-21,60)	(-89,1)	(-9,4)	(0,1)	(-2,5)	(7,4)	(-23,1)	(14,1)	(5,1)	
L1D 28>	(-3,55)	(0,39)	(10,37)	(-33,84)	(1,82)	(2,3)	(-30,1)	(-29,1)	(-36,3)	(-10,2)	(24,1)	(-28,2)	(22,1)	(50,1)	(14,1)	(388,1)	
L1D 29>	(-33,96)	(5,122)	(3,113)	(1,8)	(0,4)	(-19,32)	(131,98)	(-8,96)	(8,1)	(-5,1)	(-2,2)	(9,6)	(-6,1)	(6,2)	(-1,1)	(-18,6)	
L1D 30>	(2,115)	(-22,14)	(0,8)	(11,28)	(-33,16)	(1,45)	(-40,1)	(20,0)	(-30,46)	(6,5)	(-6,0)	(-1,1)	(-28,0)	(-2,3)	(-20,2)	(-10,41)	
L1D 31>	(1,69)	(-15,29)	(-240,1)	(107,0)	(9,27)	(-9,0)	(2,0)	(-12,0)	(6,0)	(-23,0)	(-188,0)	(-3,0)	(1,0)	(1,0)	(1,0)	(1,0)	
L1D 32>	(-32,64)	(8,0)	(156,0)	(-156,0)	(3,0)	(5,0)	(2,0)	(-20,0)	(1,0)	(-1,0)	(107,0)	(-31,0)	(4,0)	(-3,0)	(-21,0)	(0,0)	
L1D 33>	(-33,126)	(-284,1)	(-1,3)	(0,0)	(9,1)	(-381,1)	(42,4)	(2,19)	(6,19)	(-240,18)	(-9,19)	(1,2)	(-12,19)	(-23,18)	(107,1)	(10,0)	
L1D 34>	(3,113)	(8,1)	(-1,1)	(2,0)	(6,0)	(4,0)	(-34,0)	(-50,0)	(0,0)	(-173,0)	(80,0)	(-466,0)	(1,2)	(1,0)	(1,0)	(1,0)	
L1D 35>	(-35,7)	(46,90)	(7,5)	(-37,8)	(5,88)	(1,6)	(0,3)	(107,74)	(-33,3)	(249,16)	(-45,2)	(-2,6)	(160,1)	(-24,1)	(108,1)	(-10,1)	
L1D 36>	(-4,1)	(2,102)	(150,0)	(0,0)	(4,0)	(6,0)	(-3,0)	(-36,3)	(102,0)	(-5,12)	(-17,0)	(1,1)	(1,0)	(1,0)	(1,0)	(1,0)	
L1D 37>	(-39,73)	(0,7)	(5,90)	(-2,11)	(-55,1)	(10,31)	(-3,0)	(6,0)	(-59,0)	(-37,5)	(-45,1)	(7,83)	(-47,1)	(1,4)	(-18,3)	(-133,0)	
L1D 38>	(1,8)	(-2,121)	(-3,2)	(-36,98)	(-40,49)	(0,21)	(2,94)	(-4,81)	(-33,100)	(-80,1)	(-15,1)	(-38,29)	(-50,2)	(-39,1)	(-5,30)	(-47,7)	
L1D 39>	(1,67)	(-38,0)	(-39,1)	(29,0)	(-24,0)	(-18,21)	(-40,0)	(-41,3)	(15,0)	(-37,3)	(17,0)	(4,0)	(9,0)	(1,0)	(1,0)	(1,0)	
L1D 40>	(-40,64)	(-38,6)	(2,0)	(0,1)	(-8,16)	(3,0)	(-154,0)	(4,0)	(-50,0)	(-20,0)	(5,0)	(7,0)	(-2,0)	(217,0)	(-1,0)	(-30,0)	
L1D 41>	(-41,81)	(14,39)	(11,81)	(-55,81)	(8,30)	(4,40)	(-39,50)	(-12,78)	(-19,77)	(1,32)	(-10,2)	(-45,2)	(-2,1)	(2,1)	(-47,2)	(-5,1)	
L1D 42>	(-112,0)	(8,0)	(-47,0)	(41,0)	(-1,0)	(-10,7)	(3,0)	(0,10)	(-156,0)	(-50,3)	(-56,0)	(-42,75)	(-44,0)	(1,0)	(2,0)	(-70,0)	
L1D 43>	(9,0)	(-3,0)	(-10,0)	(-254,0)	(-36,0)	(-33,0)	(5,3)	(2,122)	(-42,0)	(0,0)	(-34,0)	(-2,0)	(1,0)	(1,0)	(1,0)	(1,0)	
L1D 44>	(10,89)	(-37,1)	(6,2)	(-156,2)	(-44,2)	(5,86)	(38,1)	(-1,3)	(-17,2)	(-133,1)	(8,1)	(1,4)	(-46,1)	(-454,0)	(-30,0)	(-455,0)	
L1D 45>	(-45,117)	(-9,1)	(-131,58)	(-254,1)	(1,99)	(-20,1)	(-125,1)	(-2,2)	(-58,1)	(-46,1)	(-159,1)	(-157,2)	(8,1)	(-144,1)	(9,2)	(1,0)	
L1D 46>	(-108,121)	(10,42)	(-31,79)	(2,100)	(-154,2)	(-49,2)	(-46,2)	(8,1)	(-42,6)	(211,1)	(-38,1)	(-84,1)	(75,1)	(-13,1)	(-186,1)	(-1,1)	
L1D 47>	(0,116)	(-77,17)	(2,1)	(-44,1)	(-47,14)	(-140,7)	(90,1)	(-46,1)	(285,1)	(1,18)	(-35,1)	(1,0)	(1,0)	(1,0)	(1,0)	(1,0)	
L1D 48>	(-108,120)	(-49,1)	(-39,1)	(-75,1)	(0,2)	(-5,1)	(-48,1)	(-3,1)	(174,1)	(1,4)	(-380,1)	(-156,2)	(-154,1)	(-20,1)	(1,0)	(1,0)	
L1D 49>	(0,2)	(-2,10)	(-49,2)	(2,114)	(1,18)	(-254,6)	(9,16)	(-3,1)	(3,2)	(-129,2)	(-127,2)	(-249,1)	(-48,1)	(-125,1)	(-1,1)	(-4,1)	
L1D 50>	(0,7)	(-47,126)	(-45,106)	(-154,2)	(-50,42)	(-60,2)	(-6,3)	(-42,28)	(-40,1)	(-41,22)	(-70,15)	(32,1)	(-3,1)	(-35,1)	(-57,5)	(-2,2)	
L1D 51>	(2,7)	(1,33)	(0,4)	(-40,1)	(9,2)	(-47,4)	(-54,3)	(-149,1)	(-51,1)	(-140,1)	(-50,1)	(3,1)	(1,0)	(1,0)	(1,0)	(1,0)	
L1D 52>	(-50,104)	(-3,1)	(2,5)	(-1,2)	(205,2)	(-54,1)	(-156,1)	(4,1)	(1,1)	(0,3)	(3,2)	(54,1)	(208,1)	(-2,1)	(-52,3)	(-4,8)	
L1D 53>	(-53,11)	(1,106)	(0,3)	(-1,1)	(-52,2)	(-54,0)	(-3,2)	(4,0)	(-254,3)	(-51,1)	(-129,0)	(-127,0)	(-125,1)	(-60,0)	(24,0)	(1,0)	
L1D 54>	(-47,10)	(-56,3)	(2,100)	(-53,3)	(-4,7)	(-1,1)	(0,7)	(-52,2)	(-20,2)	(-68,1)	(1,10)	(-44,2)	(-30,1)	(-54,4)	(10,1)	(-208,1)	
L1D 55>	(0,5)	(-3,5)	(-1,1)	(-53,15)	(-464,2)	(10,1)	(1,6)	(-4,1)	(61,1)	(36,1)	(-10,1)	(-27,2)	(7,1)	(-35,2)	(-2,2)	(-144,1)	
L1D 56>	(-1,15)	(-42,4)	(0,16)	(10,2)	(2,5)	(9,15)	(3,2)	(-58,2)	(1,2)	(-153,1)	(-5,1)	(-20,2)	(-3,3)	(-40,2)	(-10,1)	(-59,3)	
L1D 57>	(-57,62)	(-4,43)	(6,43)	(-70,95)	(173,13)	(-59,1)	(-2,0)	(1,1)	(2,1)	(1,0)	(1,0)	(1,0)	(1,0)	(1,0)	(1,0)	(1,0)	
L1D 58>	(-44,5)	(-59,5)	(-214,1)	(0,33)	(-125,1)	(-58,3)	(199,5)	(-3,4)	(-60,1)	(-72,1)	(-153,1)	(2,2)	(8,1)	(-70,1)	(-54,1)	(11,1)	
L1D 59>	(0,2)	(-2,2)	(4,1)	(9,18)	(103,1)	(1,2)	(-50,1)	(2,1)	(-254,1)	(23,1)	(6,1)	(-60,1)	(1,0)	(1,0)	(1,0)	(1,0)	
L1D 60>	(-1,11)	(0,48)	(-62,2)	(-46,6)	(-60,26)	(-50,3)	(-156,2)	(-10,10)	(-154,2)	(-74,4)	(-155,3)	(197,2)	(-2,1)	(-65,1)	(1,11)	(-40,5)	
L1D 61>	(0,36)	(2,92)	(-56,1)	(-64,1)	(-218,1)	(-62,8)	(1,2)	(1,0)	(1,0)	(1,0)	(1,0)	(1,0)	(1,0)	(1,0)	(1,0)	(1,0)	
L1D 62>	(2,109)	(-56,2)	(-1,3)	(-48,3)	(-70,1)	(-62,18)	(5,1)	(195,4)	(3,2)	(308,1)	(-156,2)	(6,1)	(-3,1)	(0,2)	(-2,1)	(1,1)	
L1D 63>	(-63,10)	(-56,86)	(-64,3)	(2,3)	(-3,1)	(0,30)	(10,6)	(-62,1)	(-55,1)	(-195,1)	(5,2)	(-196,1)	(107,1)	(-1,1)	(-125,1)	(-254,1)	
L1D 64>	(1,10)	(-50,4)	(-63,11)	(-60,4)	(-1,1)	(-40,4)	(0,6)	(-17,78)	(193,5)	(-62,4)	(-20,3)	(6,13)	(9,4)	(-4,4)	(8,2)	(-78,2)	
L1D 65>	(5,102)	(1,5)	(102,1)	(-63,5)	(0,1)	(-3,0)	(268,0)	(-152,0)	(-65,1)	(2,1)	(-15,0)	(-254,0)	(-2,1)	(-19,0)	(-64,0)	(10,0)	
L1D 66>	(6,86)	(-5,80)	(-4,82)	(3,1)	(-71,1)	(-18,2)	(2,6)	(-66,2)	(-1,2)	(1,3)	(9,3)	(-159,1)	(158,1)	(8,0)	(-155,0)	(193,0)	
L1D 67>	(-3,1)	(-66,10)	(9,98)	(-5,1)	(-183,1)	(-63,0)	(90,0)	(6,0)	(188,0)	(1,1)	(1,0)	(1,0)	(1,0)	(1,0)	(1,0)	(1,0)	
L1D 68>	(2,103)	(-69,1)	(-54,3)	(-155,1)	(6,1)	(-3,3)	(23,1)	(189,2)	(3,1)	(-154,1)	(168,1)	(-68,4)	(0,1)	(9,1)	(-75,0)	(1,1)	
L1D 69>	(0,4)	(-63,6)	(56,1)	(9,8)	(-70,1)	(5,1)	(-69,2)	(1,4)	(-3,1)	(-2,1)	(23,1)	(1,0)	(1,0)	(1,0)	(1,0)	(1,0)	
L1D 70>	(0,7)	(-70,6)	(170,0)	(5,19)	(-6,85)	(-156,1)	(-57,19)	(-23,1)	(3,1)	(-154,0)	(-1,0)	(-3,0)	(8,0)	(-20,0)	(1,1)	(9,0)	
L1D 71>	(6,2)	(-63,92)	(1,4)	(2,2)	(0,1)	(-208,1)	(-226,1)	(-71,1)	(-3,0)	(-70,0)	(-54,0)	(1,0)	(1,0)	(1,0)	(1,0)	(1,0)	
L1D 72>	(5,4)	(-1,3)	(-58,8)	(-63,2)	(-72,3)	(1,7)	(-156,1)	(185,8)	(-155,1)	(-70,4)	(-86,1)	(-74,1)	(8,2)	(-153,1)	(-115,1)	(4,1)	
L1D 73>	(-73,11)	(5,103)	(-74,2)	(6,98)	(-228,1)	(9,1)	(-72,0)	(84,0)	(2,2)	(4,0)	(1,3)	(-20,0)	(-9,0)	(-254,0)	(13,0)	(-71,0)	
L1D 74>	(-70,99)	(3,5)	(-74,2)	(-73,5)	(2,5)	(-60,7)	(-72,2)	(4,1)	(0,2)	(-20,1)	(-40,2)	(183,3)	(-88,1)	(-2,1)	(1,6)	(9,1)	
L1D 75>	(-449,5)	(-65,1)	(-73,5)	(2,1)	(0,18)	(-3,0)	(70,0)	(1,0)	(-2,0)	(66,0)	(-254,0)	(-74,0)	(-10,0)	(-14,0)	(-50,102)	(-112,7)	
L1D 76>	(6,118)	(-74,101)	(-59,1)	(3,5)	(-210,1)	(2,6)	(84,33)	(-76,5)	(1,8)	(-60,1)	(-72,2)	(-156,3)	(9,1)	(-8,1)	(-154,1)	(8,1)	
L1D 77>	(-449,36)	(2,80)	(10,0)	(5,9)	(6,1)	(-77,0)	(-1,2)	(-254,0)	(180,0)	(1,0)	(-448,0)	(-114,0)	(-99,0)	(1,0)	(1,0)	(1,0)	
L1D 78>	(84,51)	(-8,101)	(-79,3)	(0,3)	(6,12)	(2,5)	(-78,5)	(-64,3)	(1,3)	(-4,3)	(179,4)	(3,4)	(-76,2)	(-156,2)	(-35,1)	(-154,1)	
L1D 79>	(5,113)	(1,62)	(2,46)	(-1,2)	(-157,1)	(1,0)	(1,0)	(1,0)	(1,0)	(1,0)	(1,0)	(1,0)	(1,0)	(1,0)	(1,0)	(1,0)	
L1D 80>	(-4,91)	(-60,1)	(-80,6)	(0,6)	(2,6)	(-66,4)	(3,3)	(177,3)	(-156,2)	(8,1)	(1,4)	(-3,1)	(-78,2)	(4,0)	(-50,0)	(-1,0)	
L1D 81>	(-84,1)	(5,101)	(3,1)	(2,2)	(-91,1)	(-81,1)	(73,1)	(-3,1)	(86,4)	(-157,1)	(-4,2)	(-77,0)	(1,1)	(1,0)	(1,0)	(1,0)	
L1D 82>	(-8,111)	(-1,1)	(5,4)	(-238,1)	(2,7)	(-82,4)	(-68,4)	(1,6)	(175,1)	(300,1)	(-156,2)	(-80,1)	(-81,1)	(-255,1)	(-2,2)	(-284,0)	
L1D 83>	(-9,53)	(-84,3)	(-83,11)	(-284,6)	(1,5)	(249,11)	(2,2)	(-89,2)	(-82,5)	(-81,1)	(72,1)	(60,1)	(0,2)	(303,7)	(-3,3)	(36,1)	
L1D 84>	(-5,112)	(2,87)	(-284,76)	(-8,75)	(284,1)	(-95,1)	(-48,1)	(-19,1)	(0,3)	(9,2)	(3,1)	(-156,3)	(-60,0)	(-82,0)	(-20,0)	(1,8)	
L1D 85>	(-9,90)	(-3,2)	(9,6)	(0,8)	(-83,10)	(249,32)	(253,2)	(-89,3)	(-86,2)	(1,7)	(303,46)	(-31,9)	(2,1)	(-74,1)	(46,1)	(-90,5)	
L1D 86>	(0,0)	(2,69)	(1,1)	(-88,0)	(-156,1)	(3,0)	(-1,0)	(33,0)	(-86,0)	(6,0)	(-89,0)	(-16,0)	(-3,0)	(-4,0)	(-99,0)	(-72,0)	
L1D 87>	(107,97)	(-4,102)	(108,1)	(1,8)	(-85,4)	(-87,3)	(76,1)	(25,1)	(9,1)	(65,1)	(95,1)	(104,0)	(85,1)	(2,9)	(-86,0)	(0,0)	
L1D 88>	(-452,94)	(-88,98)	(-89,1)	(-3,1)	(-451,1)	(169,3)	(3,2)	(-91,1)	(2,8)	(-156,1)	(-1,1)	(-74,3)	(1,0)	(0,1)	(165,0)	(-86,3)	
L1D 89>	(43,1)	(-2,1)	(2,1)	(66,3)	(4,1)	(34,2)	(24,2)	(14,1)	(54,1)	(64,1)	(94,2)	(44,2)	(84,1)	(-89,18)	(1,1)	(9,1)	
L1D 90>	(4,2)	(-203,1)	(-86,15)	(2,0)	(-88,0)	(-1,2)	(-89,2)	(-211,1)	(-9,0)	(1,0)	(-90,94)	(-156,0)	(3,0)	(68,0)	(-205,9)	(64,0)	
L1D 91>	(-94,1)	(32,1)	(4,120)	(-91,1)	(1,1)	(52,1)	(-3,1)	(19,1)	(59,1)	(15,1)	(40,1)	(68,2)	(169,1)	(0,2)	(24,1)	(-1,1)	
L1D 92>	(2,21)	(-99,18)	(-92,3)	(-1,2)	(-94,2)	(-95,2)	(165,7)	(-106,1)	(8,1)	(-78,7)	(-93,1)	(-3,1)	(-2,10)	(-88,2)	(-84,1)	(-62,1)	
L1D 93>	(47,113)	(61,57)	(-254,1)	(17,1)	(-88,6)	(-1,1)	(-106,1)	(-157,1)	(66,1)	(1,0)	(1,0)	(1,0)	(1,0)	(1,0)	(1,0)	(1,0)	
L1D 94>	(-90,100)	(1,102)	(-93,9)	(-1,3)	(2,4)	(163,4)	(159,1)	(9,1)	(-30,2)	(3,1)	(0,1)	(-92,1)	(58,1)	(-80,4)	(-94,1)	(-156,1)	
L1D 95>	(0,1)	(-93,13)	(-95,2)	(-94,1)	(-182,2)	(9,1)	(2,3)	(61,1)	(46,1)	(-24,1)	(-254,1)	(-1,1)	(1,4)	(-157,1)	(-65,1)	(1,0)	
L1D 96>	(-99,2)	(-1,3)	(2,3)	(0,6)	(-82,5)	(161,5)	(5,1)	(6,1)	(-91,90)	(1,4)	(-40,1)	(-156,1)	(9,1)	(-96,1)	(-92,2)	(96,1)	
L1D 97>	(-91,15)	(2,2)	(1,1)	(58,1)	(-254,1)	(-79,1)	(-93,1)	(-2,1)	(1,0)	(1,0)	(1,0)	(1,0)	(1,0)	(1,0)	(1,0)	(1,0)	
L1D 98>	(140,120)	(2,97)	(9,4)	(-98,1)	(-3,1)	(5,2)	(-156,2)	(3,1)	(-99,0)	(1,2)	(1,0)	(1,0)	(1,0)	(1,0)	(1,0)	(1,0)	
L1D 99>	(-93,89)	(-88,1)	(-11,81)	(-85,1)	(-90,1)	(-1,1)	(-103,1)	(-10,1)	(1,0)	(1,0)	(1,0)	(1,0)	(1,0)	(1,0)	(1,0)	(1,0)	
L1D 100>	(1,14)	(2,2)	(157,5)	(-102,1)	(4,1)	(-86,7)	(-1,1)	(51,1)	(9,3)	(-19,1)	(54,1)	(-98,3)	(-63,1)	(-2,2)	(-100,1)	(1,0)	
L1D 101>	(-118,121)	(-201,120)	(-97,1)	(272,1)	(34,0)	(-114,0)	(-106,0)	(-101,1)	(1,1)	(1,0)	(1,0)	(1,0)	(1,0)	(1,0)	(1,0)	(1,0)	
L1D 102>	(-93,68)	(-31,37)	(-319,1)	(15,1)	(155,4)	(2,1)	(4,1)	(260,1)	(3,2)	(5,1)	(-102,10)	(-88,3)	(-156,2)	(50,1)	(-3,1)	(1,1)	
L1D 103>	(-17,1)	(-31,101)	(-30,1)	(9,0)	(-102,0)	(1,0)	(1,0)	(1,0)	(1,0)	(1,0)	(1,0)	(1,0)	(1,0)	(1,0)	(1,0)	(1,0)	
L1D 104>	(4,98)	(2,12)	(-2,1)	(153,2)	(-154,1)	(-111,3)	(-102,2)	(12,1)	(-104,1)	(-31,6)	(-93,10)	(-90,5)	(3,2)	(0,1)	(1,2)	(-117,1)	
L1D 105>	(-3,1)	(1,11)	(5,8)	(-93,4)	(0,95)	(-2,1)	(7,91)	(-106,1)	(2,2)	(-114,1)	(-154,1)	(-115,2)	(-254,0)	(-24,0)	(10,1)	(-118,1)	
L1D 106>	(-117,2)	(-112,45)	(5,1)	(2,109)	(-22,1)	(0,1)	(-107,126)	(-114,27)	(-113,43)	(1,1)	(-106,43)	(-111,42)	(3,1)	(161,43)	(-42,1)	(-120,0)	
L1D 107>	(90,8)	(-108,0)	(2,78)	(-450,7)	(77,7)	(-448,7)	(-121,8)	(-117,8)	(-113,8)	(-112,8)	(0,9)	(-107,20)	(-280,8)	(-106,7)	(-115,1)	(-130,7)	
L1D 108>	(6,1)	(-108,91)	(-156,1)	(-1,0)	(-143,0)	(3,0)	(1,2)	(2,0)	(9,0)	(-4,0)	(-115,2)	(-113,6)	(0,28)	(-94,0)	(7,0)	(153,0)	
L1D 109>	(-107,96)	(-254,1)	(6,105)	(-117,1)	(0,1)	(1,1)	(-1,48)	(2,1)	(1,0)	(1,0)	(1,0)	(1,0)	(1,0)	(1,0)	(1,0)	(1,0)	
L1D 110>	(147,2)	(-111,1)	(2,104)	(1,104)	(-4,64)	(4,1)	(178,1)	(332,1)	(-156,1)	(0,2)	(-110,2)	(-2,1)	(-49,0)	(-153,0)	(-124,1)	(-19,0)	
L1D 111>	(-4,57)	(0,0)	(2,7)	(1,0)	(-74,8)	(-5,1)	(-41,107)	(-117,0)	(-111,0)	(-110,0)	(-3,0)	(1,0)	(1,0)	(1,0)	(1,0)	(1,0)	
L1D 112>	(-99,97)	(-107,1)	(3,1)	(-156,2)	(-5,79)	(-110,1)	(-2,1)	(9,1)	(1,4)	(-10,1)	(2,1)	(1,0)	(1,0)	(1,0)	(1,0)	(1,0)	
L1D 113>	(142,1)	(107,1)	(-59,1)	(-107,2)	(42,1)	(1,1)	(-113,1)	(26,1)	(7,1)	(-74,1)	(25,1)	(2,2)	(90,3)	(-1,1)	(1,0)	(1,0)	
L1D 114>	(2,104)	(-100,4)	(22,2)	(80,1)	(-114,8)	(-108,2)	(143,1)	(1,3)	(-156,1)	(-106,2)	(1,0)	(1,0)	(1,0)	(1,0)	(1,0)	(1,0)	
L1D 115>	(2,108)	(1,111)	(-112,105)	(-116,1)	(-157,1)	(-2,2)	(-113,1)	(46,0)	(3,0)	(89,1)	(-254,0)	(10,0)	(-14,0)	(88,0)	(90,27)	(0,0)	
L1D 116>	(1,105)	(22,101)	(-106,85)	(2,23)	(-114,1)	(38,1)	(-111,1)	(-102,3)	(-112,1)	(-156,1)	(0,1)	(-134,0)	(7,0)	(-1,0)	(3,3)	(-115,0)	
L1D 117>	(1,118)	(-1,1)	(-117,108)	(-116,1)	(2,11)	(0,1)	(138,0)	(5,0)	(1,0)	(1,0)	(1,0)	(1,0)	(1,0)	(1,0)	(1,0)	(1,0)	
L1D 118>	(-119,1)	(-111,106)	(0,1)	(-118,2)	(-1,1)	(-104,4)	(102,1)	(-284,4)	(2,1)	(-156,1)	(139,1)	(3,1)	(-54,0)	(9,1)	(-130,0)	(1,0)	
L1D 119>	(-284,88)	(1,112)	(2,11)	(-2,7)	(0,3)	(-283,1)	(-305,2)	(-114,3)	(9,1)	(-254,0)	(1,0)	(1,0)	(1,0)	(1,0)	(1,0)	(1,0)	
L1D 120>	(-106,3)	(-1,1)	(-113,2)	(1,3)	(-159,0)	(-114,0)	(-305,84)	(9,0)	(-2,1)	(11,0)	(-19,0)	(137,0)	(2,2)	(4,4)	(0,2)	(3,1)	
L1D 121>	(-113,93)	(-114,89)	(2,91)	(3,2)	(-1,1)	(-117,2)	(0,4)	(-106,14)	(-119,1)	(-121,1)	(-144,1)	(-254,1)	(5,3)	(-123,1)	(-110,1)	(-159,1)	
L1D 122>	(-133,103)	(-108,10)	(-115,2)	(2,6)	(-122,1)	(-128,31)	(135,2)	(-125,1)	(130,1)	(127,1)	(-113,1)	(4,1)	(-102,1)	(1,3)	(-120,1)	(56,1)	
L1D 123>	(3,57)	(6,5)	(-128,4)	(-133,21)	(0,9)	(-34,2)	(2,5)	(-124,1)	(-115,3)	(-3,2)	(-254,1)	(-92,1)	(-42,2)	(-48,1)	(-52,1)	(-58,1)	
L1D 124>	(6,1)	(9,6)	(-126,1)	(-110,5)	(1,4)	(-141,1)	(133,1)	(-17,1)	(125,5)	(123,1)	(-122,1)	(3,1)	(0,2)	(-156,2)	(-124,1)	(1,0)	
L1D 125>	(5,98)	(-2,1)	(9,113)	(-84,1)	(-120,2)	(-44,1)	(-48,1)	(3,4)	(-62,1)	(-86,1)	(-122,2)	(0,12)	(-88,2)	(-52,1)	(-90,2)	(130,1)	
L1D 126>	(2,2)	(38,1)	(-90,1)	(-112,6)	(-1,1)	(-129,1)	(-65,1)	(-97,1)	(-51,1)	(1,4)	(-35,1)	(-156,1)	(3,2)	(-126,1)	(1,0)	(1,0)	
L1D 127>	(1,68)	(-114,1)	(-118,1)	(2,1)	(3,3)	(0,3)	(-113,1)	(127,2)	(-108,1)	(-128,1)	(-48,0)	(-56,1)	(-76,0)	(-110,1)	(-52,0)	(-80,0)	
L1D 128>	(-1,1)	(-129,3)	(-114,6)	(-19,1)	(1,5)	(-127,1)	(-95,1)	(4,1)	(132,1)	(260,1)	(0,2)	(-128,5)	(2,1)	(1,0)	(1,0)	(1,0)	
L1D 129>	(125,4)	(5,1)	(0,12)	(-96,2)	(-1,1)	(2,1)	(-76,1)	(-108,4)	(-74,1)	(-44,1)	(-48,1)	(3,2)	(-56,1)	(-60,1)	(-72,1)	(-104,2)	
L1D 130>	(-131,4)	(-2,1)	(-132,2)	(-5,1)	(4,1)	(-116,8)	(-3,1)	(-127,1)	(0,2)	(-56,1)	(88,1)	(1,1)	(-110,1)	(-25,1)	(3,1)	(-128,3)	
L1D 131>	(-5,97)	(369,1)	(-1,5)	(-131,2)	(2,4)	(367,0)	(-126,97)	(-134,0)	(0,13)	(1,4)	(-124,0)	(-2,0)	(1,0)	(1,0)	(1,0)	(1,0)	
L1D 132>	(74,102)	(-12,101)	(2,2)	(-132,2)	(0,1)	(1,3)	(-118,3)	(-129,1)	(-58,0)	(4,0)	(-126,1)	(-5,0)	(-2,0)	(3,1)	(-130,1)	(-131,7)	
L1D 133>	(-133,1)	(1,7)	(-134,1)	(-271,1)	(-104,1)	(0,2)	(-109,1)	(-3,1)	(4,1)	(-288,1)	(-2,9)	(1,0)	(1,0)	(1,0)	(1,0)	(1,0)	
L1D 134>	(13,1)	(-120,7)	(-131,1)	(0,2)	(1,3)	(-134,1)	(3,2)	(-132,2)	(-110,2)	(1,0)	(1,0)	(1,0)	(1,0)	(1,0)	(1,0)	(1,0)	
L1D 135>	(-137,6)	(5,1)	(-133,3)	(0,4)	(-10,1)	(16,1)	(1,1)	(-271,2)	(2,8)	(-111,1)	(123,4)	(-24,1)	(-5,1)	(-136,1)	(-135,1)	(-1,1)	
L1D 136>	(5,99)	(0,19)	(1,3)	(-144,5)	(-159,1)	(-122,3)	(2,1)	(-143,0)	(-1,23)	(-136,0)	(-134,1)	(76,0)	(212,0)	(1,0)	(1,0)	(1,0)	
L1D 137>	(-137,98)	(2,0)	(1,1)	(-3,0)	(-144,0)	(-238,0)	(4,0)	(0,2)	(119,0)	(-135,0)	(-2,0)	(1,0)	(1,0)	(1,0)	(1,0)	(1,0)	
L1D 138>	(-160,1)	(-135,1)	(-138,5)	(-162,31)	(-146,70)	(-168,33)	(-136,1)	(-4,0)	(1,1)	(1,0)	(1,0)	(1,0)	(1,0)	(1,0)	(1,0)	(1,0)	
L1D 139>	(-138,116)	(1,1)	(3,1)	(-88,1)	(-19,1)	(-127,1)	(-271,2)	(0,6)	(6,1)	(-277,1)	(-139,1)	(2,1)	(-137,1)	(1,0)	(1,0)	(1,0)	
L1D 140>	(1,69)	(-7,67)	(-4,87)	(-140,9)	(2,27)	(-139,123)	(-280,1)	(-141,1)	(-2,1)	(-88,1)	(-135,1)	(1,0)	(1,0)	(1,0)	(1,0)	(1,0)	
L1D 141>	(-239,120)	(0,1)	(1,4)	(2,1)	(-1,1)	(-139,1)	(-300,1)	(1,0)	(1,0)	(1,0)	(1,0)	(1,0)	(1,0)	(1,0)	(1,0)	(1,0)	
[...]
L1D 478>	(1,0)	(1,0)	(1,0)	(1,0)	(1,0)	(1,0)	(1,0)	(1,0)	(1,0)	(1,0)	(1,0)	(1,0)	(1,0)	(1,0)	(1,0)	(1,0)	
L1D 479>	(1,1)	(0,1)	(-18,1)	(1,0)	(1,0)	(1,0)	(1,0)	(1,0)	(1,0)	(1,0)	(1,0)	(1,0)	(1,0)	(1,0)	(1,0)	(1,0)	
L1D 480>	(0,1)	(1,0)	(1,0)	(1,0)	(1,0)	(1,0)	(1,0)	(1,0)	(1,0)	(1,0)	(1,0)	(1,0)	(1,0)	(1,0)	(1,0)	(1,0)	
L1D 481>	(6,13)	(1,2)	(1,0)	(1,0)	(1,0)	(1,0)	(1,0)	(1,0)	(1,0)	(1,0)	(1,0)	(1,0)	(1,0)	(1,0)	(1,0)	(1,0)	
L1D 482>	(1,0)	(1,0)	(1,0)	(1,0)	(1,0)	(1,0)	(1,0)	(1,0)	(1,0)	(1,0)	(1,0)	(1,0)	(1,0)	(1,0)	(1,0)	(1,0)	
L1D 483>	(1,2)	(7,6)	(1,0)	(1,0)	(1,0)	(1,0)	(1,0)	(1,0)	(1,0)	(1,0)	(1,0)	(1,0)	(1,0)	(1,0)	(1,0)	(1,0)	
L1D 484>	(1,0)	(1,0)	(1,0)	(1,0)	(1,0)	(1,0)	(1,0)	(1,0)	(1,0)	(1,0)	(1,0)	(1,0)	(1,0)	(1,0)	(1,0)	(1,0)	
L1D 485>	(0,1)	(1,0)	(1,0)	(1,0)	(1,0)	(1,0)	(1,0)	(1,0)	(1,0)	(1,0)	(1,0)	(1,0)	(1,0)	(1,0)	(1,0)	(1,0)	
L1D 486>	(-50,1)	(1,0)	(1,0)	(1,0)	(1,0)	(1,0)	(1,0)	(1,0)	(1,0)	(1,0)	(1,0)	(1,0)	(1,0)	(1,0)	(1,0)	(1,0)	
L1D 487>	(1,4)	(-6,2)	(1,0)	(1,0)	(1,0)	(1,0)	(1,0)	(1,0)	(1,0)	(1,0)	(1,0)	(1,0)	(1,0)	(1,0)	(1,0)	(1,0)	
L1D 488>	(1,0)	(1,0)	(1,0)	(1,0)	(1,0)	(1,0)	(1,0)	(1,0)	(1,0)	(1,0)	(1,0)	(1,0)	(1,0)	(1,0)	(1,0)	(1,0)	
L1D 489>	(1,78)	(1,0)	(1,0)	(1,0)	(1,0)	(1,0)	(1,0)	(1,0)	(1,0)	(1,0)	(1,0)	(1,0)	(1,0)	(1,0)	(1,0)	(1,0)	
L1D 490>	(1,0)	(1,0)	(1,0)	(1,0)	(1,0)	(1,0)	(1,0)	(1,0)	(1,0)	(1,0)	(1,0)	(1,0)	(1,0)	(1,0)	(1,0)	(1,0)	
L1D 491>	(1,8)	(1,0)	(1,0)	(1,0)	(1,0)	(1,0)	(1,0)	(1,0)	(1,0)	(1,0)	(1,0)	(1,0)	(1,0)	(1,0)	(1,0)	(1,0)	
L1D 492>	(2,0)	(1,2)	(-343,90)	(0,1)	(1,0)	(1,0)	(1,0)	(1,0)	(1,0)	(1,0)	(1,0)	(1,0)	(1,0)	(1,0)	(1,0)	(1,0)	
L1D 493>	(1,0)	(1,0)	(1,0)	(1,0)	(1,0)	(1,0)	(1,0)	(1,0)	(1,0)	(1,0)	(1,0)	(1,0)	(1,0)	(1,0)	(1,0)	(1,0)	
L1D 494>	(1,0)	(1,0)	(1,0)	(1,0)	(1,0)	(1,0)	(1,0)	(1,0)	(1,0)	(1,0)	(1,0)	(1,0)	(1,0)	(1,0)	(1,0)	(1,0)	
L1D 495>	(1,0)	(1,0)	(1,0)	(1,0)	(1,0)	(1,0)	(1,0)	(1,0)	(1,0)	(1,0)	(1,0)	(1,0)	(1,0)	(1,0)	(1,0)	(1,0)	
L1D 496>	(0,1)	(-496,7)	(2,1)	(-365,2)	(1,0)	(1,0)	(1,0)	(1,0)	(1,0)	(1,0)	(1,0)	(1,0)	(1,0)	(1,0)	(1,0)	(1,0)	
L1D 497>	(-497,1)	(1,0)	(1,0)	(1,0)	(1,0)	(1,0)	(1,0)	(1,0)	(1,0)	(1,0)	(1,0)	(1,0)	(1,0)	(1,0)	(1,0)	(1,0)	
L1D 498>	(1,0)	(1,0)	(1,0)	(1,0)	(1,0)	(1,0)	(1,0)	(1,0)	(1,0)	(1,0)	(1,0)	(1,0)	(1,0)	(1,0)	(1,0)	(1,0)	
L1D 499>	(0,1)	(-500,1)	(1,0)	(1,0)	(1,0)	(1,0)	(1,0)	(1,0)	(1,0)	(1,0)	(1,0)	(1,0)	(1,0)	(1,0)	(1,0)	(1,0)	
L1D 500>	(-218,4)	(0,4)	(-500,3)	(2,2)	(-178,1)	(1,0)	(1,0)	(1,0)	(1,0)	(1,0)	(1,0)	(1,0)	(1,0)	(1,0)	(1,0)	(1,0)	
L1D 501>	(-218,96)	(2,4)	(-501,1)	(1,0)	(1,0)	(1,0)	(1,0)	(1,0)	(1,0)	(1,0)	(1,0)	(1,0)	(1,0)	(1,0)	(1,0)	(1,0)	
L1D 502>	(0,1)	(1,0)	(1,0)	(1,0)	(1,0)	(1,0)	(1,0)	(1,0)	(1,0)	(1,0)	(1,0)	(1,0)	(1,0)	(1,0)	(1,0)	(1,0)	
L1D 503>	(1,0)	(1,0)	(1,0)	(1,0)	(1,0)	(1,0)	(1,0)	(1,0)	(1,0)	(1,0)	(1,0)	(1,0)	(1,0)	(1,0)	(1,0)	(1,0)	
L1D 504>	(1,0)	(1,0)	(1,0)	(1,0)	(1,0)	(1,0)	(1,0)	(1,0)	(1,0)	(1,0)	(1,0)	(1,0)	(1,0)	(1,0)	(1,0)	(1,0)	
L1D 505>	(1,0)	(1,0)	(1,0)	(1,0)	(1,0)	(1,0)	(1,0)	(1,0)	(1,0)	(1,0)	(1,0)	(1,0)	(1,0)	(1,0)	(1,0)	(1,0)	
L1D 506>	(1,0)	(1,0)	(1,0)	(1,0)	(1,0)	(1,0)	(1,0)	(1,0)	(1,0)	(1,0)	(1,0)	(1,0)	(1,0)	(1,0)	(1,0)	(1,0)	
L1D 507>	(1,0)	(1,0)	(1,0)	(1,0)	(1,0)	(1,0)	(1,0)	(1,0)	(1,0)	(1,0)	(1,0)	(1,0)	(1,0)	(1,0)	(1,0)	(1,0)	
L1D 508>	(1,0)	(1,0)	(1,0)	(1,0)	(1,0)	(1,0)	(1,0)	(1,0)	(1,0)	(1,0)	(1,0)	(1,0)	(1,0)	(1,0)	(1,0)	(1,0)	
L1D 509>	(1,0)	(1,0)	(1,0)	(1,0)	(1,0)	(1,0)	(1,0)	(1,0)	(1,0)	(1,0)	(1,0)	(1,0)	(1,0)	(1,0)	(1,0)	(1,0)	
L1D 510>	(1,0)	(1,0)	(1,0)	(1,0)	(1,0)	(1,0)	(1,0)	(1,0)	(1,0)	(1,0)	(1,0)	(1,0)	(1,0)	(1,0)	(1,0)	(1,0)	
L1D 511>	(1,0)	(1,0)	(1,0)	(1,0)	(1,0)	(1,0)	(1,0)	(1,0)	(1,0)	(1,0)	(1,0)	(1,0)	(1,0)	(1,0)	(1,0)	(1,0)	

L2C -64>	(1,196)	(-14,34)	(-1,49)	(-3,23)	(-4,5)	(0,23)	(-11,4)	(-7,31)	(-2,28)	(-5,27)	(-6,53)	(-19,1)	(-9,71)	(-10,16)	(2,46)	(-8,27)	
L2C -63>	(2,102)	(0,53)	(1,77)	(17,1)	(1,0)	(1,0)	(1,0)	(1,0)	(1,0)	(1,0)	(1,0)	(1,0)	(1,0)	(1,0)	(1,0)	(1,0)	
L2C -62>	(1,24)	(25,3)	(40,13)	(35,2)	(1,0)	(1,0)	(1,0)	(1,0)	(1,0)	(1,0)	(1,0)	(1,0)	(1,0)	(1,0)	(1,0)	(1,0)	
L2C -61>	(1,109)	(18,17)	(5,2)	(25,5)	(6,9)	(15,1)	(56,1)	(1,0)	(1,0)	(1,0)	(1,0)	(1,0)	(1,0)	(1,0)	(1,0)	(1,0)	
L2C -60>	(1,202)	(-1,1)	(61,1)	(6,40)	(17,1)	(52,1)	(1,0)	(1,0)	(1,0)	(1,0)	(1,0)	(1,0)	(1,0)	(1,0)	(1,0)	(1,0)	
L2C -59>	(1,34)	(-1,2)	(59,2)	(6,2)	(1,0)	(1,0)	(1,0)	(1,0)	(1,0)	(1,0)	(1,0)	(1,0)	(1,0)	(1,0)	(1,0)	(1,0)	
L2C -58>	(37,1)	(11,1)	(59,10)	(1,35)	(58,1)	(5,3)	(21,1)	(8,1)	(7,1)	(17,1)	(-2,1)	(1,0)	(1,0)	(1,0)	(1,0)	(1,0)	
L2C -57>	(1,108)	(6,1)	(5,6)	(13,1)	(-1,1)	(10,1)	(11,129)	(58,1)	(9,2)	(56,1)	(1,0)	(1,0)	(1,0)	(1,0)	(1,0)	(1,0)	
L2C -56>	(41,6)	(1,150)	(10,1)	(2,1)	(44,0)	(-1,44)	(0,0)	(57,0)	(52,0)	(35,0)	(5,1)	(6,1)	(12,1)	(13,0)	(8,1)	(40,1)	
L2C -55>	(1,208)	(-1,32)	(51,11)	(55,79)	(6,24)	(57,5)	(10,1)	(5,3)	(0,3)	(39,61)	(16,1)	(11,0)	(42,0)	(1,0)	(1,0)	(1,0)	
L2C -54>	(1,164)	(0,1)	(52,1)	(8,2)	(16,1)	(4,3)	(6,3)	(51,2)	(45,1)	(-1,1)	(1,0)	(1,0)	(1,0)	(1,0)	(1,0)	(1,0)	
L2C -53>	(1,122)	(51,14)	(-2,3)	(5,2)	(0,1)	(7,2)	(2,1)	(13,1)	(11,1)	(45,6)	(1,0)	(1,0)	(1,0)	(1,0)	(1,0)	(1,0)	
L2C -52>	(10,1)	(1,174)	(2,2)	(11,1)	(53,14)	(7,1)	(12,2)	(51,36)	(-1,2)	(1,0)	(1,0)	(1,0)	(1,0)	(1,0)	(1,0)	(1,0)	
L2C -51>	(1,74)	(4,1)	(45,4)	(-1,228)	(2,5)	(-2,10)	(-3,1)	(-11,1)	(35,1)	(51,1)	(0,1)	(48,11)	(27,1)	(9,2)	(42,1)	(1,0)	
L2C -50>	(1,190)	(-1,5)	(11,36)	(45,3)	(0,2)	(51,99)	(56,1)	(48,21)	(58,1)	(10,1)	(6,1)	(4,2)	(33,1)	(5,1)	(-2,2)	(49,1)	
L2C -49>	(1,177)	(-2,0)	(2,1)	(44,0)	(43,1)	(-5,0)	(45,0)	(50,0)	(-1,3)	(25,0)	(56,1)	(11,0)	(7,0)	(0,0)	(1,0)	(1,0)	
L2C -48>	(43,2)	(1,30)	(40,98)	(-2,108)	(5,14)	(49,60)	(8,2)	(45,3)	(48,76)	(9,3)	(47,1)	(10,2)	(32,1)	(3,4)	(14,1)	(7,1)	
L2C -47>	(11,1)	(45,4)	(43,91)	(51,1)	(25,1)	(1,36)	(48,3)	(10,1)	(5,2)	(-7,2)	(0,3)	(-2,23)	(4,1)	(-1,1)	(63,3)	(57,1)	
L2C -46>	(45,10)	(1,122)	(25,3)	(3,2)	(37,3)	(24,18)	(56,78)	(-16,2)	(-1,7)	(48,1)	(51,1)	(11,1)	(9,1)	(5,2)	(0,1)	(52,1)	
L2C -45>	(13,1)	(40,130)	(1,198)	(51,79)	(43,1)	(-1,32)	(22,1)	(24,1)	(38,1)	(10,1)	(45,1)	(20,5)	(0,0)	(5,22)	(25,2)	(21,0)	
L2C -44>	(3,10)	(-1,40)	(1,135)	(13,0)	(37,0)	(63,4)	(43,28)	(2,13)	(45,0)	(-7,0)	(11,24)	(4,0)	(6,1)	(5,0)	(0,21)	(10,0)	
L2C -43>	(1,52)	(44,64)	(-1,4)	(42,60)	(2,11)	(4,1)	(43,2)	(0,0)	(-2,187)	(-19,14)	(-17,0)	(-18,1)	(35,0)	(25,3)	(41,1)	(37,0)	
L2C -42>	(48,163)	(1,79)	(56,81)	(-1,152)	(2,6)	(49,3)	(43,55)	(-2,13)	(33,2)	(5,4)	(8,1)	(-4,2)	(21,1)	(3,1)	(25,24)	(42,1)	
L2C -41>	(43,19)	(1,175)	(21,1)	(-1,22)	(25,8)	(2,4)	(-11,12)	(-8,1)	(40,30)	(42,2)	(20,2)	(6,1)	(-9,1)	(-2,3)	(26,5)	(19,3)	
L2C -40>	(-1,60)	(1,116)	(3,2)	(-3,2)	(2,20)	(27,2)	(25,1)	(52,1)	(20,11)	(41,20)	(10,6)	(7,1)	(33,3)	(5,6)	(23,1)	(44,1)	
L2C -39>	(1,76)	(5,2)	(4,2)	(-1,8)	(33,6)	(63,4)	(42,1)	(18,2)	(-2,12)	(2,9)	(11,2)	(0,1)	(34,4)	(14,1)	(36,1)	(10,3)	
L2C -38>	(1,217)	(-4,2)	(13,67)	(-13,4)	(-1,2)	(5,7)	(14,10)	(31,7)	(39,5)	(2,14)	(-3,53)	(25,4)	(35,79)	(27,1)	(30,1)	(11,1)	
L2C -37>	(34,72)	(36,107)	(29,48)	(-1,47)	(37,61)	(47,145)	(1,78)	(13,3)	(25,4)	(11,3)	(5,4)	(10,2)	(-3,3)	(33,1)	(38,7)	(24,43)	
L2C -36>	(1,233)	(21,2)	(32,2)	(2,12)	(46,1)	(24,97)	(35,3)	(-1,2)	(5,7)	(14,1)	(38,1)	(-2,2)	(3,13)	(-3,1)	(4,2)	(0,34)	
L2C -35>	(2,2)	(1,66)	(-2,150)	(23,2)	(36,6)	(22,8)	(-9,149)	(53,29)	(5,11)	(8,2)	(-1,111)	(3,2)	(10,2)	(4,6)	(37,1)	(52,1)	
L2C -34>	(1,77)	(-1,20)	(37,158)	(2,16)	(35,18)	(34,61)	(-2,11)	(8,2)	(-3,19)	(5,11)	(13,63)	(0,5)	(33,1)	(27,1)	(-10,1)	(7,1)	
L2C -33>	(1,207)	(2,3)	(34,1)	(9,0)	(29,0)	(-2,0)	(-1,27)	(28,5)	(33,1)	(17,0)	(35,0)	(11,0)	(0,26)	(37,0)	(26,0)	(10,0)	
L2C -32>	(2,212)	(1,226)	(13,5)	(-19,67)	(-1,31)	(0,2)	(25,1)	(28,2)	(29,1)	(9,24)	(3,3)	(10,6)	(5,2)	(-15,1)	(4,1)	(-6,2)	
L2C -31>	(32,2)	(24,7)	(1,134)	(11,2)	(28,41)	(0,1)	(16,3)	(-3,1)	(10,2)	(2,4)	(5,1)	(35,0)	(51,4)	(21,0)	(-1,4)	(7,2)	
L2C -30>	(4,3)	(1,98)	(14,45)	(31,4)	(28,5)	(3,11)	(27,11)	(2,21)	(30,11)	(24,40)	(-10,3)	(-1,72)	(26,3)	(19,1)	(29,99)	(-2,3)	
L2C -29>	(-3,1)	(29,134)	(2,5)	(13,1)	(-1,12)	(1,120)	(53,30)	(-2,2)	(21,1)	(30,1)	(24,29)	(3,30)	(18,1)	(15,1)	(-27,10)	(35,1)	
L2C -28>	(1,163)	(11,2)	(24,54)	(-4,4)	(29,9)	(0,1)	(-1,13)	(28,1)	(27,47)	(21,6)	(12,1)	(30,1)	(7,0)	(-2,19)	(9,0)	(4,0)	
L2C -27>	(38,0)	(1,132)	(10,1)	(-9,25)	(28,33)	(5,7)	(21,10)	(-1,20)	(-12,0)	(15,0)	(3,0)	(22,21)	(53,6)	(13,0)	(4,1)	(9,1)	
L2C -26>	(1,170)	(37,184)	(-9,146)	(26,184)	(29,13)	(-1,20)	(-12,3)	(-2,110)	(5,1)	(9,3)	(0,65)	(2,12)	(-22,1)	(7,2)	(-21,2)	(10,1)	
L2C -25>	(21,18)	(1,128)	(11,1)	(10,1)	(24,1)	(9,1)	(-2,0)	(5,1)	(25,0)	(33,1)	(-5,0)	(15,1)	(18,0)	(2,1)	(29,0)	(-1,1)	
L2C -24>	(15,1)	(1,153)	(3,38)	(14,3)	(37,0)	(-1,81)	(26,50)	(21,0)	(24,22)	(-13,0)	(9,0)	(0,0)	(22,2)	(2,3)	(8,0)	(33,0)	
L2C -23>	(1,195)	(-22,5)	(-1,7)	(-2,11)	(-4,3)	(17,2)	(-3,1)	(3,5)	(18,1)	(22,42)	(6,1)	(24,10)	(21,1)	(11,1)	(2,7)	(19,1)	
L2C -22>	(1,229)	(7,2)	(11,2)	(4,5)	(29,12)	(17,6)	(14,103)	(22,67)	(13,46)	(18,59)	(-1,141)	(16,1)	(53,40)	(2,3)	(21,1)	(9,2)	
L2C -21>	(1,205)	(14,6)	(33,2)	(17,38)	(21,184)	(4,3)	(9,6)	(-1,45)	(53,17)	(11,41)	(0,78)	(22,2)	(-4,13)	(7,99)	(13,1)	(19,3)	
L2C -20>	(1,221)	(21,4)	(-42,2)	(-5,2)	(2,4)	(17,10)	(-1,25)	(8,2)	(0,2)	(15,1)	(5,1)	(13,1)	(-14,1)	(12,1)	(11,3)	(4,4)	
L2C -19>	(16,14)	(1,241)	(15,232)	(-1,233)	(17,19)	(18,18)	(20,1)	(14,34)	(0,105)	(-14,67)	(13,148)	(2,66)	(10,12)	(9,16)	(21,36)	(4,14)	
L2C -18>	(4,8)	(1,208)	(2,22)	(-10,1)	(8,3)	(17,13)	(14,1)	(13,1)	(-11,30)	(-12,20)	(-5,1)	(-3,29)	(11,5)	(-1,9)	(-15,1)	(30,6)	
L2C -17>	(1,233)	(3,4)	(16,55)	(19,2)	(-1,74)	(20,4)	(6,8)	(-10,3)	(-4,3)	(17,33)	(0,101)	(13,11)	(26,4)	(2,4)	(15,27)	(9,1)	
L2C -16>	(14,60)	(1,141)	(7,1)	(-2,2)	(15,5)	(-1,59)	(4,9)	(17,39)	(0,4)	(-22,3)	(8,2)	(13,1)	(11,1)	(2,41)	(3,0)	(26,0)	
L2C -15>	(14,1)	(1,224)	(-2,6)	(-3,5)	(-4,11)	(16,2)	(-11,8)	(-1,17)	(5,1)	(30,14)	(-41,6)	(15,9)	(-22,2)	(-5,14)	(18,1)	(17,2)	
L2C -14>	(1,215)	(4,10)	(13,134)	(2,5)	(11,9)	(22,4)	(14,86)	(-1,35)	(0,22)	(12,2)	(6,8)	(39,2)	(3,22)	(-24,18)	(-27,1)	(49,8)	
L2C -13>	(0,1)	(11,9)	(1,195)	(4,1)	(13,71)	(-8,9)	(28,1)	(-15,43)	(14,49)	(12,52)	(27,1)	(-1,123)	(2,4)	(19,18)	(-11,2)	(33,3)	
L2C -12>	(2,2)	(13,1)	(1,192)	(-8,31)	(15,8)	(8,4)	(-42,25)	(-11,4)	(3,4)	(-44,3)	(27,18)	(-1,14)	(5,4)	(10,3)	(-6,1)	(11,19)	
L2C -11>	(1,203)	(19,4)	(9,14)	(2,24)	(-1,23)	(4,3)	(11,29)	(3,18)	(-9,2)	(-7,2)	(12,3)	(-14,29)	(-3,1)	(10,6)	(0,31)	(-2,32)	
L2C -10>	(3,12)	(11,38)	(-4,10)	(1,235)	(2,43)	(-1,29)	(-2,5)	(-45,3)	(-16,5)	(9,37)	(5,4)	(10,25)	(30,4)	(-3,8)	(8,6)	(-11,2)	
L2C -9>	(1,190)	(0,3)	(-27,1)	(-34,1)	(7,1)	(-8,9)	(8,10)	(-11,1)	(3,5)	(-1,10)	(-9,1)	(2,12)	(-6,9)	(-19,0)	(4,0)	(9,8)	
L2C -8>	(9,15)	(4,1)	(1,197)	(2,3)	(-4,4)	(0,10)	(-1,62)	(-2,15)	(6,2)	(14,10)	(7,0)	(3,2)	(17,3)	(13,2)	(10,2)	(-8,19)	
L2C -7>	(-1,93)	(1,207)	(8,35)	(-2,16)	(-16,9)	(2,9)	(10,39)	(14,11)	(-11,5)	(-9,1)	(17,6)	(5,4)	(4,15)	(13,28)	(-7,33)	(9,8)	
L2C -6>	(-2,3)	(-3,9)	(3,10)	(43,7)	(1,163)	(10,1)	(0,5)	(-34,6)	(5,16)	(-1,55)	(4,1)	(7,2)	(-27,2)	(2,19)	(19,8)	(-13,1)	
L2C -5>	(3,46)	(-4,99)	(1,179)	(-1,90)	(-2,5)	(2,97)	(14,19)	(4,91)	(5,54)	(-12,7)	(0,10)	(13,18)	(17,1)	(-5,8)	(6,59)	(7,3)	
L2C -4>	(-2,4)	(-1,117)	(5,27)	(3,47)	(-8,18)	(1,220)	(17,21)	(4,50)	(8,12)	(10,21)	(-26,2)	(2,22)	(9,21)	(-4,3)	(27,8)	(43,1)	
L2C -3>	(-4,8)	(1,199)	(2,31)	(-14,5)	(-55,7)	(-1,48)	(18,2)	(5,6)	(4,32)	(3,7)	(24,3)	(-33,7)	(-2,3)	(-3,7)	(0,2)	(-9,6)	
L2C -2>	(-48,1)	(1,239)	(26,2)	(3,18)	(-1,45)	(2,32)	(-10,3)	(-15,2)	(21,2)	(-37,4)	(4,5)	(-2,15)	(9,2)	(-4,3)	(0,5)	(15,4)	
L2C -1>	(3,11)	(0,6)	(-2,10)	(33,1)	(2,36)	(-3,3)	(-4,2)	(14,3)	(4,5)	(1,189)	(-16,1)	(61,1)	(-1,40)	(24,2)	(-7,2)	(6,1)	
L2C 0>	(0,152)	(1,14)	(-12,1)	(-17,0)	(11,0)	(-34,0)	(20,0)	(-1,7)	(-21,0)	(-5,0)	(-9,0)	(14,0)	(2,1)	(13,0)	(-2,2)	(52,0)	
L2C 1>	(7,1)	(2,9)	(1,203)	(-3,16)	(-6,3)	(-11,4)	(0,8)	(12,2)	(-1,95)	(4,2)	(3,6)	(-5,5)	(-14,3)	(-2,53)	(13,8)	(-9,5)	
L2C 2>	(1,180)	(-10,6)	(-55,1)	(-2,39)	(-1,136)	(2,16)	(17,3)	(13,8)	(-4,16)	(4,18)	(-3,19)	(-15,3)	(-34,1)	(51,3)	(-9,4)	(0,5)	
L2C 3>	(13,29)	(1,217)	(20,1)	(-3,16)	(-42,8)	(3,1)	(-14,3)	(-4,1)	(-2,28)	(17,8)	(-19,1)	(-17,5)	(10,7)	(2,9)	(-24,1)	(-1,32)	
L2C 4>	(1,132)	(-4,32)	(6,0)	(-5,10)	(-2,34)	(-8,1)	(2,0)	(-3,21)	(-9,3)	(-22,0)	(-1,35)	(43,5)	(3,0)	(11,0)	(-30,11)	(0,5)	
L2C 5>	(3,3)	(1,181)	(-4,25)	(2,4)	(12,2)	(-1,91)	(-6,4)	(-2,31)	(-5,77)	(-12,1)	(5,1)	(-13,6)	(0,32)	(-14,5)	(4,1)	(-9,3)	
L2C 6>	(-10,3)	(1,147)	(2,29)	(-35,1)	(-1,26)	(-2,2)	(-4,1)	(-8,6)	(-9,1)	(-14,8)	(3,21)	(-3,13)	(-7,10)	(20,0)	(-6,1)	(-5,13)	
L2C 7>	(1,175)	(11,8)	(-8,2)	(3,11)	(-6,16)	(-9,18)	(0,23)	(-7,7)	(-27,1)	(-5,7)	(8,1)	(2,35)	(-2,1)	(-1,33)	(-44,1)	(-3,26)	
L2C 8>	(-6,11)	(-4,5)	(1,170)	(-13,18)	(-45,1)	(-58,2)	(-7,71)	(-1,27)	(5,7)	(2,28)	(-8,15)	(-16,4)	(-9,15)	(-37,2)	(3,5)	(-14,3)	
L2C 9>	(2,56)	(-14,10)	(1,221)	(-4,45)	(5,8)	(-6,18)	(-10,3)	(-18,4)	(-1,28)	(-59,7)	(-15,11)	(-19,1)	(-8,39)	(-9,2)	(-2,2)	(10,9)	
L2C 10>	(1,223)	(36,1)	(-17,9)	(-9,13)	(-7,53)	(9,5)	(-10,12)	(-2,29)	(-14,10)	(-35,47)	(-1,202)	(-46,41)	(-13,8)	(14,7)	(5,8)	(-32,10)	
L2C 11>	(2,2)	(18,6)	(-57,32)	(-17,3)	(1,140)	(-1,121)	(-2,5)	(-38,18)	(-12,4)	(-10,14)	(13,4)	(-14,1)	(-27,1)	(-26,10)	(-11,84)	(-25,5)	
L2C 12>	(1,213)	(3,8)	(-19,14)	(-10,51)	(6,16)	(-25,39)	(25,11)	(-16,11)	(-9,5)	(-1,72)	(-20,1)	(2,12)	(-11,41)	(-12,2)	(-17,16)	(-14,44)	
L2C 13>	(3,12)	(-17,1)	(1,229)	(-5,14)	(-19,1)	(-1,1)	(0,1)	(20,15)	(-16,14)	(-14,88)	(-37,13)	(-12,9)	(-56,15)	(-13,18)	(-15,15)	(-2,14)	
L2C 14>	(-21,1)	(-17,49)	(1,132)	(-13,100)	(-1,52)	(-12,62)	(-35,35)	(-5,24)	(-38,2)	(11,14)	(-9,0)	(0,0)	(-16,6)	(-14,134)	(-15,94)	(-6,2)	
L2C 15>	(1,166)	(-10,3)	(3,134)	(-38,4)	(-45,1)	(11,7)	(-18,2)	(-14,166)	(-1,26)	(2,10)	(-17,8)	(-15,34)	(-13,17)	(-8,2)	(-36,31)	(-12,8)	
L2C 16>	(-15,89)	(-16,36)	(1,140)	(-55,3)	(-1,35)	(-27,1)	(4,2)	(-30,12)	(-2,13)	(-11,1)	(-20,3)	(-18,2)	(-14,4)	(3,1)	(2,18)	(-12,1)	
L2C 17>	(-16,65)	(2,5)	(-30,5)	(-1,18)	(-21,9)	(1,230)	(9,3)	(-17,46)	(0,84)	(-14,11)	(-27,4)	(-49,77)	(13,4)	(-8,2)	(-19,42)	(-15,3)	
L2C 18>	(1,133)	(-18,68)	(-25,2)	(-19,3)	(15,25)	(-1,35)	(-4,6)	(-30,53)	(-17,72)	(-24,1)	(-2,9)	(2,4)	(-9,7)	(0,3)	(-10,20)	(-16,0)	
L2C 19>	(-24,3)	(1,244)	(2,18)	(7,3)	(3,4)	(13,47)	(11,4)	(-19,3)	(-18,5)	(14,42)	(-2,5)	(-8,12)	(-1,63)	(-5,20)	(-12,59)	(-17,1)	
L2C 20>	(1,200)	(-21,4)	(-1,27)	(-22,6)	(-26,7)	(-10,94)	(5,79)	(2,20)	(-11,5)	(8,8)	(-8,5)	(0,7)	(13,6)	(-18,4)	(-19,10)	(-20,2)	
L2C 21>	(-5,26)	(1,251)	(-20,46)	(-21,183)	(-2,72)	(8,27)	(-11,111)	(-1,81)	(-23,4)	(2,1)	(-4,1)	(-10,6)	(-16,3)	(-56,1)	(-19,12)	(-15,3)	
L2C 22>	(1,214)	(-20,8)	(-26,3)	(-21,167)	(-2,7)	(-23,133)	(-28,3)	(-22,3)	(0,46)	(-40,36)	(-1,6)	(-29,15)	(15,48)	(3,11)	(-6,5)	(-56,1)	
L2C 23>	(1,167)	(-29,15)	(2,8)	(-7,3)	(-1,18)	(-10,88)	(14,61)	(13,8)	(-23,3)	(0,1)	(11,4)	(-28,82)	(-24,2)	(-19,2)	(9,4)	(5,3)	
L2C 24>	(9,26)	(-26,28)	(1,146)	(-1,33)	(-23,4)	(-10,1)	(4,1)	(-15,1)	(-24,1)	(-40,0)	(14,3)	(-29,1)	(-25,0)	(6,0)	(-12,1)	(13,26)	
L2C 25>	(1,155)	(-1,6)	(-6,5)	(-38,4)	(-16,5)	(-45,23)	(-11,20)	(4,58)	(-10,4)	(9,17)	(-22,3)	(14,15)	(-29,1)	(-27,2)	(6,20)	(-23,3)	
L2C 26>	(-26,184)	(-10,31)	(-1,132)	(1,62)	(13,1)	(-4,2)	(-45,33)	(-15,2)	(-7,3)	(-22,5)	(9,1)	(-8,3)	(-33,10)	(5,2)	(-36,1)	(-28,2)	
L2C 27>	(2,1)	(1,196)	(-1,4)	(-13,3)	(-28,22)	(-2,3)	(-27,0)	(-9,0)	(-39,0)	(-16,0)	(-4,0)	(7,0)	(-22,0)	(-23,15)	(-33,5)	(-26,0)	
L2C 28>	(-1,90)	(1,227)	(-3,4)	(13,103)	(-25,5)	(-19,34)	(-23,5)	(-10,84)	(-22,8)	(-20,7)	(-24,6)	(5,32)	(-27,14)	(0,47)	(-21,5)	(-4,70)	
L2C 29>	(-29,19)	(1,144)	(-32,208)	(2,12)	(-16,4)	(-28,115)	(14,5)	(-36,50)	(-3,6)	(-30,11)	(-2,28)	(-20,1)	(-33,23)	(-35,1)	(3,1)	(-1,8)	
L2C 30>	(-29,228)	(1,103)	(-15,36)	(-35,57)	(-19,5)	(2,3)	(-31,7)	(-38,4)	(10,1)	(-45,62)	(24,1)	(-10,1)	(14,2)	(-21,1)	(-3,1)	(-2,1)	
L2C 31>	(1,156)	(-19,4)	(-13,7)	(-27,2)	(-32,102)	(2,2)	(-1,2)	(-15,3)	(-33,53)	(-6,1)	(-12,1)	(-30,21)	(-26,1)	(14,1)	(-16,1)	(-29,2)	
L2C 32>	(-45,7)	(1,243)	(-21,1)	(-1,8)	(2,2)	(-25,1)	(-11,2)	(-19,2)	(-14,1)	(-31,5)	(-12,11)	(-33,9)	(14,4)	(-15,1)	(-22,1)	(-13,53)	
L2C 33>	(1,60)	(-1,50)	(-34,16)	(-10,50)	(-33,8)	(-32,28)	(-31,28)	(-19,3)	(5,2)	(-13,5)	(15,2)	(-30,1)	(-4,2)	(-39,1)	(-6,1)	(4,1)	
L2C 34>	(1,138)	(4,21)	(-34,37)	(-35,1)	(7,1)	(-32,2)	(-36,28)	(14,0)	(3,2)	(-4,1)	(-42,1)	(-44,17)	(18,1)	(-2,0)	(1,0)	(1,0)	
L2C 35>	(1,186)	(-1,48)	(-13,8)	(-32,3)	(-34,2)	(-2,4)	(-44,2)	(15,1)	(-4,3)	(-36,9)	(-15,4)	(0,2)	(-28,1)	(-38,1)	(4,1)	(6,1)	
L2C 36>	(1,153)	(-1,15)	(-33,56)	(-13,4)	(17,1)	(-32,23)	(-21,1)	(-2,2)	(15,1)	(-35,1)	(-9,1)	(-29,1)	(-44,1)	(1,0)	(1,0)	(1,0)	
L2C 37>	(-32,32)	(-26,213)	(4,3)	(-3,1)	(1,155)	(-38,58)	(-44,74)	(-33,1)	(14,9)	(-2,18)	(-1,62)	(-42,42)	(10,2)	(-4,8)	(15,1)	(18,0)	
L2C 38>	(1,190)	(-2,4)	(-37,1)	(-7,2)	(-44,59)	(-42,1)	(-33,1)	(-34,1)	(4,1)	(-4,1)	(3,2)	(-43,5)	(-1,5)	(1,0)	(1,0)	(1,0)	
L2C 39>	(-1,5)	(-43,4)	(14,1)	(-44,57)	(1,210)	(-13,3)	(-30,1)	(-38,2)	(2,1)	(-36,1)	(4,2)	(-3,1)	(0,1)	(-33,1)	(-6,1)	(-8,1)	
L2C 40>	(5,222)	(-50,1)	(-29,33)	(-43,61)	(8,33)	(-16,1)	(1,30)	(-17,1)	(-12,1)	(-1,6)	(11,1)	(0,30)	(-36,12)	(-63,1)	(-44,12)	(-39,1)	
L2C 41>	(3,2)	(-46,3)	(1,94)	(2,21)	(-38,1)	(-23,1)	(-2,1)	(-1,3)	(-26,1)	(-44,4)	(-63,1)	(-48,1)	(-47,1)	(-43,3)	(-3,1)	(1,0)	
L2C 42>	(-50,1)	(-41,1)	(-1,159)	(1,96)	(-63,11)	(-44,92)	(-42,67)	(14,1)	(0,1)	(-13,1)	(-2,23)	(-40,1)	(-43,21)	(3,1)	(2,1)	(-39,1)	
L2C 43>	(1,251)	(-44,95)	(-43,15)	(-1,126)	(-2,46)	(-48,11)	(14,35)	(0,1)	(-42,21)	(2,2)	(-8,1)	(-23,1)	(-53,1)	(-51,39)	(1,0)	(1,0)	
L2C 44>	(-20,1)	(1,195)	(-1,112)	(2,64)	(4,1)	(-42,1)	(-8,1)	(-26,1)	(-43,64)	(-44,1)	(-12,1)	(-51,1)	(1,0)	(1,0)	(1,0)	(1,0)	
L2C 45>	(-26,26)	(-63,153)	(1,23)	(-2,1)	(-3,13)	(-4,1)	(-43,6)	(-44,3)	(0,2)	(-46,1)	(2,3)	(-51,9)	(5,1)	(-53,2)	(-10,3)	(-45,1)	
L2C 46>	(2,14)	(-4,1)	(1,25)	(-43,1)	(-2,1)	(-63,1)	(-51,11)	(-47,1)	(-46,1)	(-53,1)	(-18,1)	(8,1)	(-50,21)	(-49,5)	(0,2)	(1,0)	
L2C 47>	(-43,40)	(-10,10)	(-48,3)	(-3,1)	(-55,1)	(2,7)	(-51,89)	(-62,1)	(-56,87)	(1,4)	(-2,9)	(-49,1)	(-52,70)	(-53,11)	(-5,2)	(-61,8)	
L2C 48>	(1,245)	(-26,41)	(-38,8)	(-2,4)	(-51,4)	(-31,24)	(-22,9)	(-48,2)	(-49,1)	(-5,2)	(-47,16)	(0,3)	(2,77)	(-46,4)	(-50,1)	(6,2)	
L2C 49>	(3,1)	(1,16)	(-2,11)	(-1,50)	(2,8)	(-56,149)	(-46,2)	(-51,1)	(-26,1)	(1,0)	(1,0)	(1,0)	(1,0)	(1,0)	(1,0)	(1,0)	
L2C 50>	(1,5)	(-51,6)	(2,7)	(-52,1)	(-22,1)	(1,0)	(1,0)	(1,0)	(1,0)	(1,0)	(1,0)	(1,0)	(1,0)	(1,0)	(1,0)	(1,0)	
L2C 51>	(-26,45)	(-2,144)	(1,5)	(2,70)	(-53,8)	(-51,4)	(-55,60)	(-52,2)	(-50,27)	(-46,15)	(-22,58)	(-56,2)	(-19,1)	(-45,2)	(3,1)	(-20,1)	
L2C 52>	(-2,1)	(-51,99)	(3,1)	(1,14)	(-50,3)	(-44,1)	(-56,3)	(-53,1)	(-27,1)	(0,1)	(-7,1)	(-26,1)	(1,0)	(1,0)	(1,0)	(1,0)	
L2C 53>	(-31,41)	(-56,1)	(-55,2)	(1,42)	(-26,34)	(-1,1)	(-52,3)	(-15,1)	(2,1)	(1,0)	(1,0)	(1,0)	(1,0)	(1,0)	(1,0)	(1,0)	
L2C 54>	(-55,2)	(1,9)	(1,0)	(1,0)	(1,0)	(1,0)	(1,0)	(1,0)	(1,0)	(1,0)	(1,0)	(1,0)	(1,0)	(1,0)	(1,0)	(1,0)	
L2C 55>	(-56,5)	(-55,66)	(1,4)	(-54,35)	(0,7)	(-59,1)	(-28,2)	(-16,24)	(1,0)	(1,0)	(1,0)	(1,0)	(1,0)	(1,0)	(1,0)	(1,0)	
L2C 56>	(-43,1)	(-46,12)	(-55,169)	(-34,3)	(0,2)	(-54,3)	(-53,1)	(-57,1)	(-22,23)	(2,1)	(-62,19)	(1,0)	(1,0)	(1,0)	(1,0)	(1,0)	
L2C 57>	(1,5)	(-2,12)	(-43,3)	(-45,2)	(-56,1)	(-62,1)	(-14,1)	(1,0)	(1,0)	(1,0)	(1,0)	(1,0)	(1,0)	(1,0)	(1,0)	(1,0)	
L2C 58>	(-28,3)	(-57,1)	(-58,1)	(1,3)	(1,0)	(1,0)	(1,0)	(1,0)	(1,0)	(1,0)	(1,0)	(1,0)	(1,0)	(1,0)	(1,0)	(1,0)	
L2C 59>	(-1,11)	(1,1)	(-59,2)	(1,0)	(1,0)	(1,0)	(1,0)	(1,0)	(1,0)	(1,0)	(1,0)	(1,0)	(1,0)	(1,0)	(1,0)	(1,0)	
L2C 60>	(1,12)	(-43,1)	(1,0)	(1,0)	(1,0)	(1,0)	(1,0)	(1,0)	(1,0)	(1,0)	(1,0)	(1,0)	(1,0)	(1,0)	(1,0)	(1,0)	
L2C 61>	(-63,1)	(1,140)	(-51,1)	(-43,4)	(-60,7)	(-34,1)	(-46,1)	(1,0)	(1,0)	(1,0)	(1,0)	(1,0)	(1,0)	(1,0)	(1,0)	(1,0)	
L2C 62>	(-61,11)	(-43,8)	(1,0)	(1,0)	(1,0)	(1,0)	(1,0)	(1,0)	(1,0)	(1,0)	(1,0)	(1,0)	(1,0)	(1,0)	(1,0)	(1,0)	
L2C 63>	(-28,14)	(1,0)	(1,0)	(1,0)	(1,0)	(1,0)	(1,0)	(1,0)	(1,0)	(1,0)	(1,0)	(1,0)	(1,0)	(1,0)	(1,0)	(1,0)	

DRAM Statistics
 CHANNEL 0
 RQ ROW_BUFFER_HIT:       9168  ROW_BUFFER_MISS:      11831
 DBUS_CONGESTED:      14098
 WQ ROW_BUFFER_HIT:        219  ROW_BUFFER_MISS:       1661  FULL:          0

 AVG_CONGESTED_CYCLE: 6
