
*** ChampSim Multicore Out-of-Order Simulator ***

Warmup Instructions: 1000000
Simulation Instructions: 10000000
Number of CPUs: 1
LLC sets: 2048
LLC ways: 16
Off-chip DRAM Size: 4096 MB Channels: 1 Width: 64-bit Data Rate: 3200 MT/s

CPU 0 runs /home/virtualcse/Data-Prefetching/ChampSim/dpc3_traces/625.x264_s-20B.champsimtrace.xz
Ultra pref. initializing...
Ultra pref. initialized
Ultra pref. initializing...
Ultra pref. initialized

Warmup complete CPU 0 instructions: 1000003 cycles: 371269 (Simulation time: 0 hr 0 min 2 sec) 

Heartbeat CPU 0 instructions: 10000001 cycles: 4271178 heartbeat IPC: 2.34127 cumulative IPC: 2.30775 (Simulation time: 0 hr 0 min 14 sec) 
Finished CPU 0 instructions: 10000003 cycles: 4347989 cumulative IPC: 2.29991 (Simulation time: 0 hr 0 min 15 sec) 

CPU 0 Branch Prediction Accuracy: 99.1098% MPKI: 0.2336 Average ROB Occupancy at Mispredict: 153.554

ChampSim completed all CPUs

Region of Interest Statistics

CPU 0 cumulative IPC: 2.29991 instructions: 10000003 cycles: 4347989
L1D TOTAL     ACCESS:    1721237  HIT:    1655723  MISS:      65514
L1D LOAD      ACCESS:     654763  HIT:     631265  MISS:      23498
L1D RFO       ACCESS:     347394  HIT:     336832  MISS:      10562
L1D PREFETCH  ACCESS:     719080  HIT:     687626  MISS:      31454
L1D WRITEBACK ACCESS:          0  HIT:          0  MISS:          0
L1D PREFETCH  REQUESTED:   17470046  ISSUED:   16451071  USEFUL:      14341  USELESS:      16849
L1D AVERAGE MISS LATENCY: 69.7775 cycles
L1I TOTAL     ACCESS:     198645  HIT:     193445  MISS:       5200
L1I LOAD      ACCESS:     198645  HIT:     193445  MISS:       5200
L1I RFO       ACCESS:          0  HIT:          0  MISS:          0
L1I PREFETCH  ACCESS:          0  HIT:          0  MISS:          0
L1I WRITEBACK ACCESS:          0  HIT:          0  MISS:          0
L1I PREFETCH  REQUESTED:          0  ISSUED:          0  USEFUL:          0  USELESS:          0
L1I AVERAGE MISS LATENCY: 26.5858 cycles
L2C TOTAL     ACCESS:     251242  HIT:     206190  MISS:      45052
L2C LOAD      ACCESS:      24168  HIT:      18154  MISS:       6014
L2C RFO       ACCESS:      10470  HIT:       3328  MISS:       7142
L2C PREFETCH  ACCESS:     205221  HIT:     173327  MISS:      31894
L2C WRITEBACK ACCESS:      11383  HIT:      11381  MISS:          2
L2C PREFETCH  REQUESTED:     516627  ISSUED:     325788  USEFUL:       8252  USELESS:      20994
L2C AVERAGE MISS LATENCY: 194.258 cycles
LLC TOTAL     ACCESS:      52900  HIT:      10497  MISS:      42403
LLC LOAD      ACCESS:       5108  HIT:        442  MISS:       4666
LLC RFO       ACCESS:       6879  HIT:         27  MISS:       6852
LLC PREFETCH  ACCESS:      33062  HIT:       2177  MISS:      30885
LLC WRITEBACK ACCESS:       7851  HIT:       7851  MISS:          0
LLC PREFETCH  REQUESTED:          0  ISSUED:          0  USEFUL:        292  USELESS:       5844
LLC AVERAGE MISS LATENCY: 170.282 cycles
Major fault: 0 Minor fault: 923

L1D -512>	(-1,3)	(0,116)	(-17,2)	(84,27)	(-9,6)	(79,6)	(9,22)	(3,5)	(160,2)	(121,2)	(4,1)	(2,8)	(1,68)	(-76,1)	(168,20)	(8,1)	
L1D -511>	(0,2)	(1,2)	(1,0)	(1,0)	(1,0)	(1,0)	(1,0)	(1,0)	(1,0)	(1,0)	(1,0)	(1,0)	(1,0)	(1,0)	(1,0)	(1,0)	
L1D -510>	(1,0)	(1,0)	(1,0)	(1,0)	(1,0)	(1,0)	(1,0)	(1,0)	(1,0)	(1,0)	(1,0)	(1,0)	(1,0)	(1,0)	(1,0)	(1,0)	
L1D -509>	(1,0)	(1,0)	(1,0)	(1,0)	(1,0)	(1,0)	(1,0)	(1,0)	(1,0)	(1,0)	(1,0)	(1,0)	(1,0)	(1,0)	(1,0)	(1,0)	
L1D -508>	(1,0)	(1,0)	(1,0)	(1,0)	(1,0)	(1,0)	(1,0)	(1,0)	(1,0)	(1,0)	(1,0)	(1,0)	(1,0)	(1,0)	(1,0)	(1,0)	
L1D -507>	(1,0)	(1,0)	(1,0)	(1,0)	(1,0)	(1,0)	(1,0)	(1,0)	(1,0)	(1,0)	(1,0)	(1,0)	(1,0)	(1,0)	(1,0)	(1,0)	
L1D -506>	(1,0)	(1,0)	(1,0)	(1,0)	(1,0)	(1,0)	(1,0)	(1,0)	(1,0)	(1,0)	(1,0)	(1,0)	(1,0)	(1,0)	(1,0)	(1,0)	
L1D -505>	(1,1)	(168,1)	(1,0)	(1,0)	(1,0)	(1,0)	(1,0)	(1,0)	(1,0)	(1,0)	(1,0)	(1,0)	(1,0)	(1,0)	(1,0)	(1,0)	
L1D -504>	(168,4)	(0,10)	(1,6)	(84,3)	(1,0)	(1,0)	(1,0)	(1,0)	(1,0)	(1,0)	(1,0)	(1,0)	(1,0)	(1,0)	(1,0)	(1,0)	
L1D -503>	(1,28)	(0,91)	(84,33)	(168,3)	(1,0)	(1,0)	(1,0)	(1,0)	(1,0)	(1,0)	(1,0)	(1,0)	(1,0)	(1,0)	(1,0)	(1,0)	
L1D -502>	(0,74)	(1,5)	(83,4)	(168,14)	(336,2)	(504,2)	(1,0)	(1,0)	(1,0)	(1,0)	(1,0)	(1,0)	(1,0)	(1,0)	(1,0)	(1,0)	
L1D -501>	(168,1)	(1,0)	(1,0)	(1,0)	(1,0)	(1,0)	(1,0)	(1,0)	(1,0)	(1,0)	(1,0)	(1,0)	(1,0)	(1,0)	(1,0)	(1,0)	
L1D -500>	(1,0)	(1,0)	(1,0)	(1,0)	(1,0)	(1,0)	(1,0)	(1,0)	(1,0)	(1,0)	(1,0)	(1,0)	(1,0)	(1,0)	(1,0)	(1,0)	
L1D -499>	(1,0)	(1,0)	(1,0)	(1,0)	(1,0)	(1,0)	(1,0)	(1,0)	(1,0)	(1,0)	(1,0)	(1,0)	(1,0)	(1,0)	(1,0)	(1,0)	
L1D -498>	(1,0)	(1,0)	(1,0)	(1,0)	(1,0)	(1,0)	(1,0)	(1,0)	(1,0)	(1,0)	(1,0)	(1,0)	(1,0)	(1,0)	(1,0)	(1,0)	
L1D -497>	(1,0)	(1,0)	(1,0)	(1,0)	(1,0)	(1,0)	(1,0)	(1,0)	(1,0)	(1,0)	(1,0)	(1,0)	(1,0)	(1,0)	(1,0)	(1,0)	
L1D -496>	(0,2)	(1,0)	(1,0)	(1,0)	(1,0)	(1,0)	(1,0)	(1,0)	(1,0)	(1,0)	(1,0)	(1,0)	(1,0)	(1,0)	(1,0)	(1,0)	
L1D -495>	(0,1)	(1,0)	(1,0)	(1,0)	(1,0)	(1,0)	(1,0)	(1,0)	(1,0)	(1,0)	(1,0)	(1,0)	(1,0)	(1,0)	(1,0)	(1,0)	
L1D -494>	(1,0)	(1,0)	(1,0)	(1,0)	(1,0)	(1,0)	(1,0)	(1,0)	(1,0)	(1,0)	(1,0)	(1,0)	(1,0)	(1,0)	(1,0)	(1,0)	
L1D -493>	(1,0)	(1,0)	(1,0)	(1,0)	(1,0)	(1,0)	(1,0)	(1,0)	(1,0)	(1,0)	(1,0)	(1,0)	(1,0)	(1,0)	(1,0)	(1,0)	
L1D -492>	(1,0)	(1,0)	(1,0)	(1,0)	(1,0)	(1,0)	(1,0)	(1,0)	(1,0)	(1,0)	(1,0)	(1,0)	(1,0)	(1,0)	(1,0)	(1,0)	
L1D -491>	(1,0)	(1,0)	(1,0)	(1,0)	(1,0)	(1,0)	(1,0)	(1,0)	(1,0)	(1,0)	(1,0)	(1,0)	(1,0)	(1,0)	(1,0)	(1,0)	
L1D -490>	(1,0)	(1,0)	(1,0)	(1,0)	(1,0)	(1,0)	(1,0)	(1,0)	(1,0)	(1,0)	(1,0)	(1,0)	(1,0)	(1,0)	(1,0)	(1,0)	
L1D -489>	(1,0)	(1,0)	(1,0)	(1,0)	(1,0)	(1,0)	(1,0)	(1,0)	(1,0)	(1,0)	(1,0)	(1,0)	(1,0)	(1,0)	(1,0)	(1,0)	
L1D -488>	(1,0)	(1,0)	(1,0)	(1,0)	(1,0)	(1,0)	(1,0)	(1,0)	(1,0)	(1,0)	(1,0)	(1,0)	(1,0)	(1,0)	(1,0)	(1,0)	
L1D -487>	(0,2)	(1,0)	(1,0)	(1,0)	(1,0)	(1,0)	(1,0)	(1,0)	(1,0)	(1,0)	(1,0)	(1,0)	(1,0)	(1,0)	(1,0)	(1,0)	
L1D -486>	(1,0)	(1,0)	(1,0)	(1,0)	(1,0)	(1,0)	(1,0)	(1,0)	(1,0)	(1,0)	(1,0)	(1,0)	(1,0)	(1,0)	(1,0)	(1,0)	
L1D -485>	(1,0)	(1,0)	(1,0)	(1,0)	(1,0)	(1,0)	(1,0)	(1,0)	(1,0)	(1,0)	(1,0)	(1,0)	(1,0)	(1,0)	(1,0)	(1,0)	
L1D -484>	(1,0)	(1,0)	(1,0)	(1,0)	(1,0)	(1,0)	(1,0)	(1,0)	(1,0)	(1,0)	(1,0)	(1,0)	(1,0)	(1,0)	(1,0)	(1,0)	
L1D -483>	(1,0)	(1,0)	(1,0)	(1,0)	(1,0)	(1,0)	(1,0)	(1,0)	(1,0)	(1,0)	(1,0)	(1,0)	(1,0)	(1,0)	(1,0)	(1,0)	
L1D -482>	(1,0)	(1,0)	(1,0)	(1,0)	(1,0)	(1,0)	(1,0)	(1,0)	(1,0)	(1,0)	(1,0)	(1,0)	(1,0)	(1,0)	(1,0)	(1,0)	
L1D -481>	(1,0)	(1,0)	(1,0)	(1,0)	(1,0)	(1,0)	(1,0)	(1,0)	(1,0)	(1,0)	(1,0)	(1,0)	(1,0)	(1,0)	(1,0)	(1,0)	
L1D -480>	(160,1)	(1,0)	(1,0)	(1,0)	(1,0)	(1,0)	(1,0)	(1,0)	(1,0)	(1,0)	(1,0)	(1,0)	(1,0)	(1,0)	(1,0)	(1,0)	
L1D -479>	(1,0)	(1,0)	(1,0)	(1,0)	(1,0)	(1,0)	(1,0)	(1,0)	(1,0)	(1,0)	(1,0)	(1,0)	(1,0)	(1,0)	(1,0)	(1,0)	
L1D -478>	(160,13)	(480,2)	(0,18)	(3,16)	(1,0)	(1,0)	(1,0)	(1,0)	(1,0)	(1,0)	(1,0)	(1,0)	(1,0)	(1,0)	(1,0)	(1,0)	
L1D -477>	(1,0)	(1,0)	(1,0)	(1,0)	(1,0)	(1,0)	(1,0)	(1,0)	(1,0)	(1,0)	(1,0)	(1,0)	(1,0)	(1,0)	(1,0)	(1,0)	
L1D -476>	(1,0)	(1,0)	(1,0)	(1,0)	(1,0)	(1,0)	(1,0)	(1,0)	(1,0)	(1,0)	(1,0)	(1,0)	(1,0)	(1,0)	(1,0)	(1,0)	
L1D -475>	(157,4)	(0,2)	(-1,2)	(1,0)	(1,0)	(1,0)	(1,0)	(1,0)	(1,0)	(1,0)	(1,0)	(1,0)	(1,0)	(1,0)	(1,0)	(1,0)	
L1D -474>	(1,0)	(1,0)	(1,0)	(1,0)	(1,0)	(1,0)	(1,0)	(1,0)	(1,0)	(1,0)	(1,0)	(1,0)	(1,0)	(1,0)	(1,0)	(1,0)	
L1D -473>	(1,0)	(1,0)	(1,0)	(1,0)	(1,0)	(1,0)	(1,0)	(1,0)	(1,0)	(1,0)	(1,0)	(1,0)	(1,0)	(1,0)	(1,0)	(1,0)	
L1D -472>	(1,0)	(1,0)	(1,0)	(1,0)	(1,0)	(1,0)	(1,0)	(1,0)	(1,0)	(1,0)	(1,0)	(1,0)	(1,0)	(1,0)	(1,0)	(1,0)	
L1D -471>	(0,1)	(1,1)	(1,0)	(1,0)	(1,0)	(1,0)	(1,0)	(1,0)	(1,0)	(1,0)	(1,0)	(1,0)	(1,0)	(1,0)	(1,0)	(1,0)	
L1D -470>	(1,0)	(1,0)	(1,0)	(1,0)	(1,0)	(1,0)	(1,0)	(1,0)	(1,0)	(1,0)	(1,0)	(1,0)	(1,0)	(1,0)	(1,0)	(1,0)	
L1D -469>	(1,0)	(1,0)	(1,0)	(1,0)	(1,0)	(1,0)	(1,0)	(1,0)	(1,0)	(1,0)	(1,0)	(1,0)	(1,0)	(1,0)	(1,0)	(1,0)	
L1D -468>	(1,0)	(1,0)	(1,0)	(1,0)	(1,0)	(1,0)	(1,0)	(1,0)	(1,0)	(1,0)	(1,0)	(1,0)	(1,0)	(1,0)	(1,0)	(1,0)	
L1D -467>	(1,0)	(1,0)	(1,0)	(1,0)	(1,0)	(1,0)	(1,0)	(1,0)	(1,0)	(1,0)	(1,0)	(1,0)	(1,0)	(1,0)	(1,0)	(1,0)	
L1D -466>	(1,0)	(1,0)	(1,0)	(1,0)	(1,0)	(1,0)	(1,0)	(1,0)	(1,0)	(1,0)	(1,0)	(1,0)	(1,0)	(1,0)	(1,0)	(1,0)	
L1D -465>	(1,0)	(1,0)	(1,0)	(1,0)	(1,0)	(1,0)	(1,0)	(1,0)	(1,0)	(1,0)	(1,0)	(1,0)	(1,0)	(1,0)	(1,0)	(1,0)	
L1D -464>	(1,0)	(1,0)	(1,0)	(1,0)	(1,0)	(1,0)	(1,0)	(1,0)	(1,0)	(1,0)	(1,0)	(1,0)	(1,0)	(1,0)	(1,0)	(1,0)	
L1D -463>	(1,0)	(1,0)	(1,0)	(1,0)	(1,0)	(1,0)	(1,0)	(1,0)	(1,0)	(1,0)	(1,0)	(1,0)	(1,0)	(1,0)	(1,0)	(1,0)	
L1D -462>	(1,0)	(1,0)	(1,0)	(1,0)	(1,0)	(1,0)	(1,0)	(1,0)	(1,0)	(1,0)	(1,0)	(1,0)	(1,0)	(1,0)	(1,0)	(1,0)	
L1D -461>	(1,0)	(1,0)	(1,0)	(1,0)	(1,0)	(1,0)	(1,0)	(1,0)	(1,0)	(1,0)	(1,0)	(1,0)	(1,0)	(1,0)	(1,0)	(1,0)	
L1D -460>	(1,0)	(1,0)	(1,0)	(1,0)	(1,0)	(1,0)	(1,0)	(1,0)	(1,0)	(1,0)	(1,0)	(1,0)	(1,0)	(1,0)	(1,0)	(1,0)	
L1D -459>	(1,0)	(1,0)	(1,0)	(1,0)	(1,0)	(1,0)	(1,0)	(1,0)	(1,0)	(1,0)	(1,0)	(1,0)	(1,0)	(1,0)	(1,0)	(1,0)	
L1D -458>	(1,0)	(1,0)	(1,0)	(1,0)	(1,0)	(1,0)	(1,0)	(1,0)	(1,0)	(1,0)	(1,0)	(1,0)	(1,0)	(1,0)	(1,0)	(1,0)	
L1D -457>	(1,0)	(1,0)	(1,0)	(1,0)	(1,0)	(1,0)	(1,0)	(1,0)	(1,0)	(1,0)	(1,0)	(1,0)	(1,0)	(1,0)	(1,0)	(1,0)	
L1D -456>	(1,0)	(1,0)	(1,0)	(1,0)	(1,0)	(1,0)	(1,0)	(1,0)	(1,0)	(1,0)	(1,0)	(1,0)	(1,0)	(1,0)	(1,0)	(1,0)	
L1D -455>	(0,2)	(1,0)	(1,0)	(1,0)	(1,0)	(1,0)	(1,0)	(1,0)	(1,0)	(1,0)	(1,0)	(1,0)	(1,0)	(1,0)	(1,0)	(1,0)	
L1D -454>	(1,0)	(1,0)	(1,0)	(1,0)	(1,0)	(1,0)	(1,0)	(1,0)	(1,0)	(1,0)	(1,0)	(1,0)	(1,0)	(1,0)	(1,0)	(1,0)	
L1D -453>	(1,0)	(1,0)	(1,0)	(1,0)	(1,0)	(1,0)	(1,0)	(1,0)	(1,0)	(1,0)	(1,0)	(1,0)	(1,0)	(1,0)	(1,0)	(1,0)	
L1D -452>	(1,0)	(1,0)	(1,0)	(1,0)	(1,0)	(1,0)	(1,0)	(1,0)	(1,0)	(1,0)	(1,0)	(1,0)	(1,0)	(1,0)	(1,0)	(1,0)	
L1D -451>	(1,0)	(1,0)	(1,0)	(1,0)	(1,0)	(1,0)	(1,0)	(1,0)	(1,0)	(1,0)	(1,0)	(1,0)	(1,0)	(1,0)	(1,0)	(1,0)	
L1D -450>	(1,0)	(1,0)	(1,0)	(1,0)	(1,0)	(1,0)	(1,0)	(1,0)	(1,0)	(1,0)	(1,0)	(1,0)	(1,0)	(1,0)	(1,0)	(1,0)	
L1D -449>	(1,0)	(1,0)	(1,0)	(1,0)	(1,0)	(1,0)	(1,0)	(1,0)	(1,0)	(1,0)	(1,0)	(1,0)	(1,0)	(1,0)	(1,0)	(1,0)	
L1D -448>	(1,0)	(1,0)	(1,0)	(1,0)	(1,0)	(1,0)	(1,0)	(1,0)	(1,0)	(1,0)	(1,0)	(1,0)	(1,0)	(1,0)	(1,0)	(1,0)	
L1D -447>	(1,0)	(1,0)	(1,0)	(1,0)	(1,0)	(1,0)	(1,0)	(1,0)	(1,0)	(1,0)	(1,0)	(1,0)	(1,0)	(1,0)	(1,0)	(1,0)	
L1D -446>	(1,0)	(1,0)	(1,0)	(1,0)	(1,0)	(1,0)	(1,0)	(1,0)	(1,0)	(1,0)	(1,0)	(1,0)	(1,0)	(1,0)	(1,0)	(1,0)	
L1D -445>	(1,0)	(1,0)	(1,0)	(1,0)	(1,0)	(1,0)	(1,0)	(1,0)	(1,0)	(1,0)	(1,0)	(1,0)	(1,0)	(1,0)	(1,0)	(1,0)	
L1D -444>	(1,0)	(1,0)	(1,0)	(1,0)	(1,0)	(1,0)	(1,0)	(1,0)	(1,0)	(1,0)	(1,0)	(1,0)	(1,0)	(1,0)	(1,0)	(1,0)	
L1D -443>	(1,0)	(1,0)	(1,0)	(1,0)	(1,0)	(1,0)	(1,0)	(1,0)	(1,0)	(1,0)	(1,0)	(1,0)	(1,0)	(1,0)	(1,0)	(1,0)	
L1D -442>	(1,0)	(1,0)	(1,0)	(1,0)	(1,0)	(1,0)	(1,0)	(1,0)	(1,0)	(1,0)	(1,0)	(1,0)	(1,0)	(1,0)	(1,0)	(1,0)	
L1D -441>	(1,0)	(1,0)	(1,0)	(1,0)	(1,0)	(1,0)	(1,0)	(1,0)	(1,0)	(1,0)	(1,0)	(1,0)	(1,0)	(1,0)	(1,0)	(1,0)	
L1D -440>	(1,0)	(1,0)	(1,0)	(1,0)	(1,0)	(1,0)	(1,0)	(1,0)	(1,0)	(1,0)	(1,0)	(1,0)	(1,0)	(1,0)	(1,0)	(1,0)	
L1D -439>	(1,2)	(0,1)	(1,0)	(1,0)	(1,0)	(1,0)	(1,0)	(1,0)	(1,0)	(1,0)	(1,0)	(1,0)	(1,0)	(1,0)	(1,0)	(1,0)	
L1D -438>	(1,0)	(1,0)	(1,0)	(1,0)	(1,0)	(1,0)	(1,0)	(1,0)	(1,0)	(1,0)	(1,0)	(1,0)	(1,0)	(1,0)	(1,0)	(1,0)	
L1D -437>	(1,0)	(1,0)	(1,0)	(1,0)	(1,0)	(1,0)	(1,0)	(1,0)	(1,0)	(1,0)	(1,0)	(1,0)	(1,0)	(1,0)	(1,0)	(1,0)	
L1D -436>	(1,0)	(1,0)	(1,0)	(1,0)	(1,0)	(1,0)	(1,0)	(1,0)	(1,0)	(1,0)	(1,0)	(1,0)	(1,0)	(1,0)	(1,0)	(1,0)	
L1D -435>	(2,1)	(1,0)	(1,0)	(1,0)	(1,0)	(1,0)	(1,0)	(1,0)	(1,0)	(1,0)	(1,0)	(1,0)	(1,0)	(1,0)	(1,0)	(1,0)	
L1D -434>	(1,0)	(1,0)	(1,0)	(1,0)	(1,0)	(1,0)	(1,0)	(1,0)	(1,0)	(1,0)	(1,0)	(1,0)	(1,0)	(1,0)	(1,0)	(1,0)	
L1D -433>	(0,1)	(1,0)	(1,0)	(1,0)	(1,0)	(1,0)	(1,0)	(1,0)	(1,0)	(1,0)	(1,0)	(1,0)	(1,0)	(1,0)	(1,0)	(1,0)	
L1D -432>	(1,0)	(1,0)	(1,0)	(1,0)	(1,0)	(1,0)	(1,0)	(1,0)	(1,0)	(1,0)	(1,0)	(1,0)	(1,0)	(1,0)	(1,0)	(1,0)	
L1D -431>	(1,0)	(1,0)	(1,0)	(1,0)	(1,0)	(1,0)	(1,0)	(1,0)	(1,0)	(1,0)	(1,0)	(1,0)	(1,0)	(1,0)	(1,0)	(1,0)	
L1D -430>	(1,0)	(1,0)	(1,0)	(1,0)	(1,0)	(1,0)	(1,0)	(1,0)	(1,0)	(1,0)	(1,0)	(1,0)	(1,0)	(1,0)	(1,0)	(1,0)	
L1D -429>	(1,0)	(1,0)	(1,0)	(1,0)	(1,0)	(1,0)	(1,0)	(1,0)	(1,0)	(1,0)	(1,0)	(1,0)	(1,0)	(1,0)	(1,0)	(1,0)	
L1D -428>	(1,0)	(1,0)	(1,0)	(1,0)	(1,0)	(1,0)	(1,0)	(1,0)	(1,0)	(1,0)	(1,0)	(1,0)	(1,0)	(1,0)	(1,0)	(1,0)	
L1D -427>	(1,0)	(1,0)	(1,0)	(1,0)	(1,0)	(1,0)	(1,0)	(1,0)	(1,0)	(1,0)	(1,0)	(1,0)	(1,0)	(1,0)	(1,0)	(1,0)	
L1D -426>	(1,0)	(1,0)	(1,0)	(1,0)	(1,0)	(1,0)	(1,0)	(1,0)	(1,0)	(1,0)	(1,0)	(1,0)	(1,0)	(1,0)	(1,0)	(1,0)	
L1D -425>	(1,0)	(1,0)	(1,0)	(1,0)	(1,0)	(1,0)	(1,0)	(1,0)	(1,0)	(1,0)	(1,0)	(1,0)	(1,0)	(1,0)	(1,0)	(1,0)	
L1D -424>	(1,0)	(1,0)	(1,0)	(1,0)	(1,0)	(1,0)	(1,0)	(1,0)	(1,0)	(1,0)	(1,0)	(1,0)	(1,0)	(1,0)	(1,0)	(1,0)	
L1D -423>	(0,2)	(1,1)	(1,0)	(1,0)	(1,0)	(1,0)	(1,0)	(1,0)	(1,0)	(1,0)	(1,0)	(1,0)	(1,0)	(1,0)	(1,0)	(1,0)	
L1D -422>	(1,2)	(1,0)	(1,0)	(1,0)	(1,0)	(1,0)	(1,0)	(1,0)	(1,0)	(1,0)	(1,0)	(1,0)	(1,0)	(1,0)	(1,0)	(1,0)	
L1D -421>	(0,1)	(1,0)	(1,0)	(1,0)	(1,0)	(1,0)	(1,0)	(1,0)	(1,0)	(1,0)	(1,0)	(1,0)	(1,0)	(1,0)	(1,0)	(1,0)	
L1D -420>	(0,73)	(1,2)	(1,0)	(1,0)	(1,0)	(1,0)	(1,0)	(1,0)	(1,0)	(1,0)	(1,0)	(1,0)	(1,0)	(1,0)	(1,0)	(1,0)	
L1D -419>	(0,104)	(84,76)	(168,1)	(420,1)	(252,1)	(1,0)	(1,0)	(1,0)	(1,0)	(1,0)	(1,0)	(1,0)	(1,0)	(1,0)	(1,0)	(1,0)	
L1D -418>	(1,0)	(1,0)	(1,0)	(1,0)	(1,0)	(1,0)	(1,0)	(1,0)	(1,0)	(1,0)	(1,0)	(1,0)	(1,0)	(1,0)	(1,0)	(1,0)	
L1D -417>	(207,2)	(1,0)	(1,0)	(1,0)	(1,0)	(1,0)	(1,0)	(1,0)	(1,0)	(1,0)	(1,0)	(1,0)	(1,0)	(1,0)	(1,0)	(1,0)	
L1D -416>	(1,0)	(1,0)	(1,0)	(1,0)	(1,0)	(1,0)	(1,0)	(1,0)	(1,0)	(1,0)	(1,0)	(1,0)	(1,0)	(1,0)	(1,0)	(1,0)	
L1D -415>	(1,0)	(1,0)	(1,0)	(1,0)	(1,0)	(1,0)	(1,0)	(1,0)	(1,0)	(1,0)	(1,0)	(1,0)	(1,0)	(1,0)	(1,0)	(1,0)	
L1D -414>	(1,0)	(1,0)	(1,0)	(1,0)	(1,0)	(1,0)	(1,0)	(1,0)	(1,0)	(1,0)	(1,0)	(1,0)	(1,0)	(1,0)	(1,0)	(1,0)	
L1D -413>	(1,0)	(1,0)	(1,0)	(1,0)	(1,0)	(1,0)	(1,0)	(1,0)	(1,0)	(1,0)	(1,0)	(1,0)	(1,0)	(1,0)	(1,0)	(1,0)	
L1D -412>	(1,0)	(1,0)	(1,0)	(1,0)	(1,0)	(1,0)	(1,0)	(1,0)	(1,0)	(1,0)	(1,0)	(1,0)	(1,0)	(1,0)	(1,0)	(1,0)	
L1D -411>	(1,0)	(1,0)	(1,0)	(1,0)	(1,0)	(1,0)	(1,0)	(1,0)	(1,0)	(1,0)	(1,0)	(1,0)	(1,0)	(1,0)	(1,0)	(1,0)	
L1D -410>	(1,0)	(1,0)	(1,0)	(1,0)	(1,0)	(1,0)	(1,0)	(1,0)	(1,0)	(1,0)	(1,0)	(1,0)	(1,0)	(1,0)	(1,0)	(1,0)	
L1D -409>	(1,0)	(1,0)	(1,0)	(1,0)	(1,0)	(1,0)	(1,0)	(1,0)	(1,0)	(1,0)	(1,0)	(1,0)	(1,0)	(1,0)	(1,0)	(1,0)	
L1D -408>	(1,0)	(1,0)	(1,0)	(1,0)	(1,0)	(1,0)	(1,0)	(1,0)	(1,0)	(1,0)	(1,0)	(1,0)	(1,0)	(1,0)	(1,0)	(1,0)	
L1D -407>	(1,1)	(0,1)	(1,0)	(1,0)	(1,0)	(1,0)	(1,0)	(1,0)	(1,0)	(1,0)	(1,0)	(1,0)	(1,0)	(1,0)	(1,0)	(1,0)	
L1D -406>	(1,0)	(1,0)	(1,0)	(1,0)	(1,0)	(1,0)	(1,0)	(1,0)	(1,0)	(1,0)	(1,0)	(1,0)	(1,0)	(1,0)	(1,0)	(1,0)	
L1D -405>	(207,1)	(1,0)	(1,0)	(1,0)	(1,0)	(1,0)	(1,0)	(1,0)	(1,0)	(1,0)	(1,0)	(1,0)	(1,0)	(1,0)	(1,0)	(1,0)	
L1D -404>	(1,0)	(1,0)	(1,0)	(1,0)	(1,0)	(1,0)	(1,0)	(1,0)	(1,0)	(1,0)	(1,0)	(1,0)	(1,0)	(1,0)	(1,0)	(1,0)	
L1D -403>	(403,110)	(1,0)	(1,0)	(1,0)	(1,0)	(1,0)	(1,0)	(1,0)	(1,0)	(1,0)	(1,0)	(1,0)	(1,0)	(1,0)	(1,0)	(1,0)	
L1D -402>	(1,0)	(1,0)	(1,0)	(1,0)	(1,0)	(1,0)	(1,0)	(1,0)	(1,0)	(1,0)	(1,0)	(1,0)	(1,0)	(1,0)	(1,0)	(1,0)	
L1D -401>	(1,0)	(1,0)	(1,0)	(1,0)	(1,0)	(1,0)	(1,0)	(1,0)	(1,0)	(1,0)	(1,0)	(1,0)	(1,0)	(1,0)	(1,0)	(1,0)	
L1D -400>	(1,0)	(1,0)	(1,0)	(1,0)	(1,0)	(1,0)	(1,0)	(1,0)	(1,0)	(1,0)	(1,0)	(1,0)	(1,0)	(1,0)	(1,0)	(1,0)	
L1D -399>	(1,0)	(1,0)	(1,0)	(1,0)	(1,0)	(1,0)	(1,0)	(1,0)	(1,0)	(1,0)	(1,0)	(1,0)	(1,0)	(1,0)	(1,0)	(1,0)	
L1D -398>	(1,0)	(1,0)	(1,0)	(1,0)	(1,0)	(1,0)	(1,0)	(1,0)	(1,0)	(1,0)	(1,0)	(1,0)	(1,0)	(1,0)	(1,0)	(1,0)	
L1D -397>	(1,0)	(1,0)	(1,0)	(1,0)	(1,0)	(1,0)	(1,0)	(1,0)	(1,0)	(1,0)	(1,0)	(1,0)	(1,0)	(1,0)	(1,0)	(1,0)	
L1D -396>	(1,0)	(1,0)	(1,0)	(1,0)	(1,0)	(1,0)	(1,0)	(1,0)	(1,0)	(1,0)	(1,0)	(1,0)	(1,0)	(1,0)	(1,0)	(1,0)	
L1D -395>	(1,0)	(1,0)	(1,0)	(1,0)	(1,0)	(1,0)	(1,0)	(1,0)	(1,0)	(1,0)	(1,0)	(1,0)	(1,0)	(1,0)	(1,0)	(1,0)	
L1D -394>	(1,0)	(1,0)	(1,0)	(1,0)	(1,0)	(1,0)	(1,0)	(1,0)	(1,0)	(1,0)	(1,0)	(1,0)	(1,0)	(1,0)	(1,0)	(1,0)	
L1D -393>	(1,0)	(1,0)	(1,0)	(1,0)	(1,0)	(1,0)	(1,0)	(1,0)	(1,0)	(1,0)	(1,0)	(1,0)	(1,0)	(1,0)	(1,0)	(1,0)	
L1D -392>	(0,112)	(1,0)	(1,0)	(1,0)	(1,0)	(1,0)	(1,0)	(1,0)	(1,0)	(1,0)	(1,0)	(1,0)	(1,0)	(1,0)	(1,0)	(1,0)	
L1D -391>	(0,2)	(209,1)	(1,0)	(1,0)	(1,0)	(1,0)	(1,0)	(1,0)	(1,0)	(1,0)	(1,0)	(1,0)	(1,0)	(1,0)	(1,0)	(1,0)	
L1D -390>	(-14,1)	(1,0)	(1,0)	(1,0)	(1,0)	(1,0)	(1,0)	(1,0)	(1,0)	(1,0)	(1,0)	(1,0)	(1,0)	(1,0)	(1,0)	(1,0)	
L1D -389>	(1,0)	(1,0)	(1,0)	(1,0)	(1,0)	(1,0)	(1,0)	(1,0)	(1,0)	(1,0)	(1,0)	(1,0)	(1,0)	(1,0)	(1,0)	(1,0)	
L1D -388>	(360,66)	(38,4)	(1,0)	(1,0)	(1,0)	(1,0)	(1,0)	(1,0)	(1,0)	(1,0)	(1,0)	(1,0)	(1,0)	(1,0)	(1,0)	(1,0)	
L1D -387>	(1,0)	(1,0)	(1,0)	(1,0)	(1,0)	(1,0)	(1,0)	(1,0)	(1,0)	(1,0)	(1,0)	(1,0)	(1,0)	(1,0)	(1,0)	(1,0)	
L1D -386>	(1,0)	(1,0)	(1,0)	(1,0)	(1,0)	(1,0)	(1,0)	(1,0)	(1,0)	(1,0)	(1,0)	(1,0)	(1,0)	(1,0)	(1,0)	(1,0)	
L1D -385>	(1,0)	(1,0)	(1,0)	(1,0)	(1,0)	(1,0)	(1,0)	(1,0)	(1,0)	(1,0)	(1,0)	(1,0)	(1,0)	(1,0)	(1,0)	(1,0)	
L1D -384>	(33,1)	(363,74)	(-5,2)	(1,0)	(1,0)	(1,0)	(1,0)	(1,0)	(1,0)	(1,0)	(1,0)	(1,0)	(1,0)	(1,0)	(1,0)	(1,0)	
L1D -383>	(168,8)	(1,1)	(169,1)	(355,11)	(1,0)	(1,0)	(1,0)	(1,0)	(1,0)	(1,0)	(1,0)	(1,0)	(1,0)	(1,0)	(1,0)	(1,0)	
L1D -382>	(1,0)	(1,0)	(1,0)	(1,0)	(1,0)	(1,0)	(1,0)	(1,0)	(1,0)	(1,0)	(1,0)	(1,0)	(1,0)	(1,0)	(1,0)	(1,0)	
L1D -381>	(1,0)	(1,0)	(1,0)	(1,0)	(1,0)	(1,0)	(1,0)	(1,0)	(1,0)	(1,0)	(1,0)	(1,0)	(1,0)	(1,0)	(1,0)	(1,0)	
L1D -380>	(-5,1)	(363,34)	(1,0)	(1,0)	(1,0)	(1,0)	(1,0)	(1,0)	(1,0)	(1,0)	(1,0)	(1,0)	(1,0)	(1,0)	(1,0)	(1,0)	
L1D -379>	(1,0)	(1,0)	(1,0)	(1,0)	(1,0)	(1,0)	(1,0)	(1,0)	(1,0)	(1,0)	(1,0)	(1,0)	(1,0)	(1,0)	(1,0)	(1,0)	
L1D -378>	(1,0)	(1,0)	(1,0)	(1,0)	(1,0)	(1,0)	(1,0)	(1,0)	(1,0)	(1,0)	(1,0)	(1,0)	(1,0)	(1,0)	(1,0)	(1,0)	
L1D -377>	(1,0)	(1,0)	(1,0)	(1,0)	(1,0)	(1,0)	(1,0)	(1,0)	(1,0)	(1,0)	(1,0)	(1,0)	(1,0)	(1,0)	(1,0)	(1,0)	
L1D -376>	(1,0)	(1,0)	(1,0)	(1,0)	(1,0)	(1,0)	(1,0)	(1,0)	(1,0)	(1,0)	(1,0)	(1,0)	(1,0)	(1,0)	(1,0)	(1,0)	
L1D -375>	(1,0)	(1,0)	(1,0)	(1,0)	(1,0)	(1,0)	(1,0)	(1,0)	(1,0)	(1,0)	(1,0)	(1,0)	(1,0)	(1,0)	(1,0)	(1,0)	
L1D -374>	(1,0)	(1,0)	(1,0)	(1,0)	(1,0)	(1,0)	(1,0)	(1,0)	(1,0)	(1,0)	(1,0)	(1,0)	(1,0)	(1,0)	(1,0)	(1,0)	
L1D -373>	(1,0)	(1,0)	(1,0)	(1,0)	(1,0)	(1,0)	(1,0)	(1,0)	(1,0)	(1,0)	(1,0)	(1,0)	(1,0)	(1,0)	(1,0)	(1,0)	
L1D -372>	(85,1)	(431,65)	(1,0)	(1,0)	(1,0)	(1,0)	(1,0)	(1,0)	(1,0)	(1,0)	(1,0)	(1,0)	(1,0)	(1,0)	(1,0)	(1,0)	
L1D -371>	(228,1)	(1,0)	(1,0)	(1,0)	(1,0)	(1,0)	(1,0)	(1,0)	(1,0)	(1,0)	(1,0)	(1,0)	(1,0)	(1,0)	(1,0)	(1,0)	
L1D -370>	(1,0)	(1,0)	(1,0)	(1,0)	(1,0)	(1,0)	(1,0)	(1,0)	(1,0)	(1,0)	(1,0)	(1,0)	(1,0)	(1,0)	(1,0)	(1,0)	
L1D -369>	(1,0)	(1,0)	(1,0)	(1,0)	(1,0)	(1,0)	(1,0)	(1,0)	(1,0)	(1,0)	(1,0)	(1,0)	(1,0)	(1,0)	(1,0)	(1,0)	
L1D -368>	(1,0)	(1,0)	(1,0)	(1,0)	(1,0)	(1,0)	(1,0)	(1,0)	(1,0)	(1,0)	(1,0)	(1,0)	(1,0)	(1,0)	(1,0)	(1,0)	
L1D -367>	(1,0)	(1,0)	(1,0)	(1,0)	(1,0)	(1,0)	(1,0)	(1,0)	(1,0)	(1,0)	(1,0)	(1,0)	(1,0)	(1,0)	(1,0)	(1,0)	
L1D -366>	(1,0)	(1,0)	(1,0)	(1,0)	(1,0)	(1,0)	(1,0)	(1,0)	(1,0)	(1,0)	(1,0)	(1,0)	(1,0)	(1,0)	(1,0)	(1,0)	
L1D -365>	(1,0)	(1,0)	(1,0)	(1,0)	(1,0)	(1,0)	(1,0)	(1,0)	(1,0)	(1,0)	(1,0)	(1,0)	(1,0)	(1,0)	(1,0)	(1,0)	
L1D -364>	(1,0)	(1,0)	(1,0)	(1,0)	(1,0)	(1,0)	(1,0)	(1,0)	(1,0)	(1,0)	(1,0)	(1,0)	(1,0)	(1,0)	(1,0)	(1,0)	
L1D -363>	(1,0)	(1,0)	(1,0)	(1,0)	(1,0)	(1,0)	(1,0)	(1,0)	(1,0)	(1,0)	(1,0)	(1,0)	(1,0)	(1,0)	(1,0)	(1,0)	
L1D -362>	(1,0)	(1,0)	(1,0)	(1,0)	(1,0)	(1,0)	(1,0)	(1,0)	(1,0)	(1,0)	(1,0)	(1,0)	(1,0)	(1,0)	(1,0)	(1,0)	
L1D -361>	(1,103)	(353,1)	(1,0)	(1,0)	(1,0)	(1,0)	(1,0)	(1,0)	(1,0)	(1,0)	(1,0)	(1,0)	(1,0)	(1,0)	(1,0)	(1,0)	
L1D -360>	(38,41)	(1,0)	(1,0)	(1,0)	(1,0)	(1,0)	(1,0)	(1,0)	(1,0)	(1,0)	(1,0)	(1,0)	(1,0)	(1,0)	(1,0)	(1,0)	
L1D -359>	(0,1)	(1,1)	(1,0)	(1,0)	(1,0)	(1,0)	(1,0)	(1,0)	(1,0)	(1,0)	(1,0)	(1,0)	(1,0)	(1,0)	(1,0)	(1,0)	
L1D -358>	(1,0)	(1,0)	(1,0)	(1,0)	(1,0)	(1,0)	(1,0)	(1,0)	(1,0)	(1,0)	(1,0)	(1,0)	(1,0)	(1,0)	(1,0)	(1,0)	
L1D -357>	(1,0)	(1,0)	(1,0)	(1,0)	(1,0)	(1,0)	(1,0)	(1,0)	(1,0)	(1,0)	(1,0)	(1,0)	(1,0)	(1,0)	(1,0)	(1,0)	
L1D -356>	(1,0)	(1,0)	(1,0)	(1,0)	(1,0)	(1,0)	(1,0)	(1,0)	(1,0)	(1,0)	(1,0)	(1,0)	(1,0)	(1,0)	(1,0)	(1,0)	
L1D -355>	(201,2)	(399,17)	(1,0)	(1,0)	(1,0)	(1,0)	(1,0)	(1,0)	(1,0)	(1,0)	(1,0)	(1,0)	(1,0)	(1,0)	(1,0)	(1,0)	
L1D -354>	(1,0)	(1,0)	(1,0)	(1,0)	(1,0)	(1,0)	(1,0)	(1,0)	(1,0)	(1,0)	(1,0)	(1,0)	(1,0)	(1,0)	(1,0)	(1,0)	
L1D -353>	(1,7)	(1,0)	(1,0)	(1,0)	(1,0)	(1,0)	(1,0)	(1,0)	(1,0)	(1,0)	(1,0)	(1,0)	(1,0)	(1,0)	(1,0)	(1,0)	
L1D -352>	(167,1)	(1,0)	(1,0)	(1,0)	(1,0)	(1,0)	(1,0)	(1,0)	(1,0)	(1,0)	(1,0)	(1,0)	(1,0)	(1,0)	(1,0)	(1,0)	
L1D -351>	(1,0)	(1,0)	(1,0)	(1,0)	(1,0)	(1,0)	(1,0)	(1,0)	(1,0)	(1,0)	(1,0)	(1,0)	(1,0)	(1,0)	(1,0)	(1,0)	
L1D -350>	(1,0)	(1,0)	(1,0)	(1,0)	(1,0)	(1,0)	(1,0)	(1,0)	(1,0)	(1,0)	(1,0)	(1,0)	(1,0)	(1,0)	(1,0)	(1,0)	
L1D -349>	(1,0)	(1,0)	(1,0)	(1,0)	(1,0)	(1,0)	(1,0)	(1,0)	(1,0)	(1,0)	(1,0)	(1,0)	(1,0)	(1,0)	(1,0)	(1,0)	
L1D -348>	(1,0)	(1,0)	(1,0)	(1,0)	(1,0)	(1,0)	(1,0)	(1,0)	(1,0)	(1,0)	(1,0)	(1,0)	(1,0)	(1,0)	(1,0)	(1,0)	
L1D -347>	(1,0)	(1,0)	(1,0)	(1,0)	(1,0)	(1,0)	(1,0)	(1,0)	(1,0)	(1,0)	(1,0)	(1,0)	(1,0)	(1,0)	(1,0)	(1,0)	
L1D -346>	(1,0)	(1,0)	(1,0)	(1,0)	(1,0)	(1,0)	(1,0)	(1,0)	(1,0)	(1,0)	(1,0)	(1,0)	(1,0)	(1,0)	(1,0)	(1,0)	
L1D -345>	(1,0)	(1,0)	(1,0)	(1,0)	(1,0)	(1,0)	(1,0)	(1,0)	(1,0)	(1,0)	(1,0)	(1,0)	(1,0)	(1,0)	(1,0)	(1,0)	
L1D -344>	(1,0)	(1,0)	(1,0)	(1,0)	(1,0)	(1,0)	(1,0)	(1,0)	(1,0)	(1,0)	(1,0)	(1,0)	(1,0)	(1,0)	(1,0)	(1,0)	
L1D -343>	(1,0)	(1,0)	(1,0)	(1,0)	(1,0)	(1,0)	(1,0)	(1,0)	(1,0)	(1,0)	(1,0)	(1,0)	(1,0)	(1,0)	(1,0)	(1,0)	
L1D -342>	(1,0)	(1,0)	(1,0)	(1,0)	(1,0)	(1,0)	(1,0)	(1,0)	(1,0)	(1,0)	(1,0)	(1,0)	(1,0)	(1,0)	(1,0)	(1,0)	
L1D -341>	(1,1)	(1,0)	(1,0)	(1,0)	(1,0)	(1,0)	(1,0)	(1,0)	(1,0)	(1,0)	(1,0)	(1,0)	(1,0)	(1,0)	(1,0)	(1,0)	
L1D -340>	(1,0)	(1,0)	(1,0)	(1,0)	(1,0)	(1,0)	(1,0)	(1,0)	(1,0)	(1,0)	(1,0)	(1,0)	(1,0)	(1,0)	(1,0)	(1,0)	
L1D -339>	(1,0)	(1,0)	(1,0)	(1,0)	(1,0)	(1,0)	(1,0)	(1,0)	(1,0)	(1,0)	(1,0)	(1,0)	(1,0)	(1,0)	(1,0)	(1,0)	
L1D -338>	(1,14)	(168,9)	(2,2)	(0,1)	(1,0)	(1,0)	(1,0)	(1,0)	(1,0)	(1,0)	(1,0)	(1,0)	(1,0)	(1,0)	(1,0)	(1,0)	
L1D -337>	(168,70)	(1,40)	(0,39)	(2,2)	(1,0)	(1,0)	(1,0)	(1,0)	(1,0)	(1,0)	(1,0)	(1,0)	(1,0)	(1,0)	(1,0)	(1,0)	
L1D -336>	(168,73)	(0,7)	(1,10)	(169,1)	(84,1)	(1,0)	(1,0)	(1,0)	(1,0)	(1,0)	(1,0)	(1,0)	(1,0)	(1,0)	(1,0)	(1,0)	
L1D -335>	(336,0)	(0,95)	(1,80)	(84,1)	(168,4)	(1,0)	(1,0)	(1,0)	(1,0)	(1,0)	(1,0)	(1,0)	(1,0)	(1,0)	(1,0)	(1,0)	
L1D -334>	(0,1)	(1,0)	(168,87)	(336,0)	(1,0)	(1,0)	(1,0)	(1,0)	(1,0)	(1,0)	(1,0)	(1,0)	(1,0)	(1,0)	(1,0)	(1,0)	
L1D -333>	(168,10)	(0,1)	(1,0)	(1,0)	(1,0)	(1,0)	(1,0)	(1,0)	(1,0)	(1,0)	(1,0)	(1,0)	(1,0)	(1,0)	(1,0)	(1,0)	
L1D -332>	(304,102)	(1,0)	(1,0)	(1,0)	(1,0)	(1,0)	(1,0)	(1,0)	(1,0)	(1,0)	(1,0)	(1,0)	(1,0)	(1,0)	(1,0)	(1,0)	
L1D -331>	(1,0)	(1,0)	(1,0)	(1,0)	(1,0)	(1,0)	(1,0)	(1,0)	(1,0)	(1,0)	(1,0)	(1,0)	(1,0)	(1,0)	(1,0)	(1,0)	
L1D -330>	(1,0)	(1,0)	(1,0)	(1,0)	(1,0)	(1,0)	(1,0)	(1,0)	(1,0)	(1,0)	(1,0)	(1,0)	(1,0)	(1,0)	(1,0)	(1,0)	
L1D -329>	(1,0)	(1,0)	(1,0)	(1,0)	(1,0)	(1,0)	(1,0)	(1,0)	(1,0)	(1,0)	(1,0)	(1,0)	(1,0)	(1,0)	(1,0)	(1,0)	
L1D -328>	(0,14)	(1,7)	(1,0)	(1,0)	(1,0)	(1,0)	(1,0)	(1,0)	(1,0)	(1,0)	(1,0)	(1,0)	(1,0)	(1,0)	(1,0)	(1,0)	
L1D -327>	(0,1)	(1,0)	(1,0)	(1,0)	(1,0)	(1,0)	(1,0)	(1,0)	(1,0)	(1,0)	(1,0)	(1,0)	(1,0)	(1,0)	(1,0)	(1,0)	
L1D -326>	(1,0)	(1,0)	(1,0)	(1,0)	(1,0)	(1,0)	(1,0)	(1,0)	(1,0)	(1,0)	(1,0)	(1,0)	(1,0)	(1,0)	(1,0)	(1,0)	
L1D -325>	(1,0)	(1,0)	(1,0)	(1,0)	(1,0)	(1,0)	(1,0)	(1,0)	(1,0)	(1,0)	(1,0)	(1,0)	(1,0)	(1,0)	(1,0)	(1,0)	
L1D -324>	(1,0)	(1,0)	(1,0)	(1,0)	(1,0)	(1,0)	(1,0)	(1,0)	(1,0)	(1,0)	(1,0)	(1,0)	(1,0)	(1,0)	(1,0)	(1,0)	
L1D -323>	(1,0)	(1,0)	(1,0)	(1,0)	(1,0)	(1,0)	(1,0)	(1,0)	(1,0)	(1,0)	(1,0)	(1,0)	(1,0)	(1,0)	(1,0)	(1,0)	
L1D -322>	(-50,5)	(1,0)	(1,0)	(1,0)	(1,0)	(1,0)	(1,0)	(1,0)	(1,0)	(1,0)	(1,0)	(1,0)	(1,0)	(1,0)	(1,0)	(1,0)	
L1D -321>	(348,3)	(-4,1)	(1,0)	(1,0)	(1,0)	(1,0)	(1,0)	(1,0)	(1,0)	(1,0)	(1,0)	(1,0)	(1,0)	(1,0)	(1,0)	(1,0)	
L1D -320>	(-4,2)	(160,9)	(1,0)	(1,0)	(1,0)	(1,0)	(1,0)	(1,0)	(1,0)	(1,0)	(1,0)	(1,0)	(1,0)	(1,0)	(1,0)	(1,0)	
L1D -319>	(1,0)	(1,0)	(1,0)	(1,0)	(1,0)	(1,0)	(1,0)	(1,0)	(1,0)	(1,0)	(1,0)	(1,0)	(1,0)	(1,0)	(1,0)	(1,0)	
L1D -318>	(160,87)	(480,3)	(1,0)	(1,0)	(1,0)	(1,0)	(1,0)	(1,0)	(1,0)	(1,0)	(1,0)	(1,0)	(1,0)	(1,0)	(1,0)	(1,0)	
L1D -317>	(1,0)	(1,0)	(1,0)	(1,0)	(1,0)	(1,0)	(1,0)	(1,0)	(1,0)	(1,0)	(1,0)	(1,0)	(1,0)	(1,0)	(1,0)	(1,0)	
L1D -316>	(1,0)	(1,0)	(1,0)	(1,0)	(1,0)	(1,0)	(1,0)	(1,0)	(1,0)	(1,0)	(1,0)	(1,0)	(1,0)	(1,0)	(1,0)	(1,0)	
L1D -315>	(-10,1)	(1,0)	(1,0)	(1,0)	(1,0)	(1,0)	(1,0)	(1,0)	(1,0)	(1,0)	(1,0)	(1,0)	(1,0)	(1,0)	(1,0)	(1,0)	
L1D -314>	(1,0)	(1,0)	(1,0)	(1,0)	(1,0)	(1,0)	(1,0)	(1,0)	(1,0)	(1,0)	(1,0)	(1,0)	(1,0)	(1,0)	(1,0)	(1,0)	
L1D -313>	(1,0)	(1,0)	(1,0)	(1,0)	(1,0)	(1,0)	(1,0)	(1,0)	(1,0)	(1,0)	(1,0)	(1,0)	(1,0)	(1,0)	(1,0)	(1,0)	
L1D -312>	(1,0)	(1,0)	(1,0)	(1,0)	(1,0)	(1,0)	(1,0)	(1,0)	(1,0)	(1,0)	(1,0)	(1,0)	(1,0)	(1,0)	(1,0)	(1,0)	
L1D -311>	(1,0)	(1,0)	(1,0)	(1,0)	(1,0)	(1,0)	(1,0)	(1,0)	(1,0)	(1,0)	(1,0)	(1,0)	(1,0)	(1,0)	(1,0)	(1,0)	
L1D -310>	(1,0)	(1,0)	(1,0)	(1,0)	(1,0)	(1,0)	(1,0)	(1,0)	(1,0)	(1,0)	(1,0)	(1,0)	(1,0)	(1,0)	(1,0)	(1,0)	
L1D -309>	(1,0)	(1,0)	(1,0)	(1,0)	(1,0)	(1,0)	(1,0)	(1,0)	(1,0)	(1,0)	(1,0)	(1,0)	(1,0)	(1,0)	(1,0)	(1,0)	
L1D -308>	(1,0)	(1,0)	(1,0)	(1,0)	(1,0)	(1,0)	(1,0)	(1,0)	(1,0)	(1,0)	(1,0)	(1,0)	(1,0)	(1,0)	(1,0)	(1,0)	
L1D -307>	(1,0)	(1,0)	(1,0)	(1,0)	(1,0)	(1,0)	(1,0)	(1,0)	(1,0)	(1,0)	(1,0)	(1,0)	(1,0)	(1,0)	(1,0)	(1,0)	
L1D -306>	(1,0)	(1,0)	(1,0)	(1,0)	(1,0)	(1,0)	(1,0)	(1,0)	(1,0)	(1,0)	(1,0)	(1,0)	(1,0)	(1,0)	(1,0)	(1,0)	
L1D -305>	(332,11)	(0,32)	(1,0)	(1,0)	(1,0)	(1,0)	(1,0)	(1,0)	(1,0)	(1,0)	(1,0)	(1,0)	(1,0)	(1,0)	(1,0)	(1,0)	
L1D -304>	(332,95)	(1,0)	(1,0)	(1,0)	(1,0)	(1,0)	(1,0)	(1,0)	(1,0)	(1,0)	(1,0)	(1,0)	(1,0)	(1,0)	(1,0)	(1,0)	
L1D -303>	(1,0)	(1,0)	(1,0)	(1,0)	(1,0)	(1,0)	(1,0)	(1,0)	(1,0)	(1,0)	(1,0)	(1,0)	(1,0)	(1,0)	(1,0)	(1,0)	
L1D -302>	(1,0)	(1,0)	(1,0)	(1,0)	(1,0)	(1,0)	(1,0)	(1,0)	(1,0)	(1,0)	(1,0)	(1,0)	(1,0)	(1,0)	(1,0)	(1,0)	
L1D -301>	(301,1)	(1,0)	(1,0)	(1,0)	(1,0)	(1,0)	(1,0)	(1,0)	(1,0)	(1,0)	(1,0)	(1,0)	(1,0)	(1,0)	(1,0)	(1,0)	
L1D -300>	(1,0)	(1,0)	(1,0)	(1,0)	(1,0)	(1,0)	(1,0)	(1,0)	(1,0)	(1,0)	(1,0)	(1,0)	(1,0)	(1,0)	(1,0)	(1,0)	
L1D -299>	(1,0)	(1,0)	(1,0)	(1,0)	(1,0)	(1,0)	(1,0)	(1,0)	(1,0)	(1,0)	(1,0)	(1,0)	(1,0)	(1,0)	(1,0)	(1,0)	
L1D -298>	(1,0)	(1,0)	(1,0)	(1,0)	(1,0)	(1,0)	(1,0)	(1,0)	(1,0)	(1,0)	(1,0)	(1,0)	(1,0)	(1,0)	(1,0)	(1,0)	
L1D -297>	(1,0)	(1,0)	(1,0)	(1,0)	(1,0)	(1,0)	(1,0)	(1,0)	(1,0)	(1,0)	(1,0)	(1,0)	(1,0)	(1,0)	(1,0)	(1,0)	
L1D -296>	(1,0)	(1,0)	(1,0)	(1,0)	(1,0)	(1,0)	(1,0)	(1,0)	(1,0)	(1,0)	(1,0)	(1,0)	(1,0)	(1,0)	(1,0)	(1,0)	
L1D -295>	(13,1)	(1,0)	(1,0)	(1,0)	(1,0)	(1,0)	(1,0)	(1,0)	(1,0)	(1,0)	(1,0)	(1,0)	(1,0)	(1,0)	(1,0)	(1,0)	
L1D -294>	(12,1)	(1,0)	(1,0)	(1,0)	(1,0)	(1,0)	(1,0)	(1,0)	(1,0)	(1,0)	(1,0)	(1,0)	(1,0)	(1,0)	(1,0)	(1,0)	
L1D -293>	(1,0)	(1,0)	(1,0)	(1,0)	(1,0)	(1,0)	(1,0)	(1,0)	(1,0)	(1,0)	(1,0)	(1,0)	(1,0)	(1,0)	(1,0)	(1,0)	
L1D -292>	(1,0)	(1,0)	(1,0)	(1,0)	(1,0)	(1,0)	(1,0)	(1,0)	(1,0)	(1,0)	(1,0)	(1,0)	(1,0)	(1,0)	(1,0)	(1,0)	
L1D -291>	(1,0)	(1,0)	(1,0)	(1,0)	(1,0)	(1,0)	(1,0)	(1,0)	(1,0)	(1,0)	(1,0)	(1,0)	(1,0)	(1,0)	(1,0)	(1,0)	
L1D -290>	(8,1)	(1,0)	(1,0)	(1,0)	(1,0)	(1,0)	(1,0)	(1,0)	(1,0)	(1,0)	(1,0)	(1,0)	(1,0)	(1,0)	(1,0)	(1,0)	
L1D -289>	(1,0)	(1,0)	(1,0)	(1,0)	(1,0)	(1,0)	(1,0)	(1,0)	(1,0)	(1,0)	(1,0)	(1,0)	(1,0)	(1,0)	(1,0)	(1,0)	
L1D -288>	(1,0)	(1,0)	(1,0)	(1,0)	(1,0)	(1,0)	(1,0)	(1,0)	(1,0)	(1,0)	(1,0)	(1,0)	(1,0)	(1,0)	(1,0)	(1,0)	
L1D -287>	(139,1)	(1,0)	(1,0)	(1,0)	(1,0)	(1,0)	(1,0)	(1,0)	(1,0)	(1,0)	(1,0)	(1,0)	(1,0)	(1,0)	(1,0)	(1,0)	
L1D -286>	(29,3)	(1,0)	(1,0)	(1,0)	(1,0)	(1,0)	(1,0)	(1,0)	(1,0)	(1,0)	(1,0)	(1,0)	(1,0)	(1,0)	(1,0)	(1,0)	
L1D -285>	(15,1)	(41,10)	(285,5)	(284,4)	(1,0)	(1,0)	(1,0)	(1,0)	(1,0)	(1,0)	(1,0)	(1,0)	(1,0)	(1,0)	(1,0)	(1,0)	
L1D -284>	(284,93)	(285,4)	(283,1)	(1,0)	(1,0)	(1,0)	(1,0)	(1,0)	(1,0)	(1,0)	(1,0)	(1,0)	(1,0)	(1,0)	(1,0)	(1,0)	
L1D -283>	(284,1)	(1,0)	(1,0)	(1,0)	(1,0)	(1,0)	(1,0)	(1,0)	(1,0)	(1,0)	(1,0)	(1,0)	(1,0)	(1,0)	(1,0)	(1,0)	
L1D -282>	(29,54)	(1,0)	(1,0)	(1,0)	(1,0)	(1,0)	(1,0)	(1,0)	(1,0)	(1,0)	(1,0)	(1,0)	(1,0)	(1,0)	(1,0)	(1,0)	
L1D -281>	(41,18)	(1,0)	(1,0)	(1,0)	(1,0)	(1,0)	(1,0)	(1,0)	(1,0)	(1,0)	(1,0)	(1,0)	(1,0)	(1,0)	(1,0)	(1,0)	
L1D -280>	(0,3)	(29,10)	(1,0)	(1,0)	(1,0)	(1,0)	(1,0)	(1,0)	(1,0)	(1,0)	(1,0)	(1,0)	(1,0)	(1,0)	(1,0)	(1,0)	
L1D -279>	(1,0)	(1,0)	(1,0)	(1,0)	(1,0)	(1,0)	(1,0)	(1,0)	(1,0)	(1,0)	(1,0)	(1,0)	(1,0)	(1,0)	(1,0)	(1,0)	
L1D -278>	(254,1)	(252,17)	(23,1)	(123,1)	(1,0)	(1,0)	(1,0)	(1,0)	(1,0)	(1,0)	(1,0)	(1,0)	(1,0)	(1,0)	(1,0)	(1,0)	
L1D -277>	(1,0)	(1,0)	(1,0)	(1,0)	(1,0)	(1,0)	(1,0)	(1,0)	(1,0)	(1,0)	(1,0)	(1,0)	(1,0)	(1,0)	(1,0)	(1,0)	
L1D -276>	(0,67)	(123,1)	(161,1)	(1,0)	(1,0)	(1,0)	(1,0)	(1,0)	(1,0)	(1,0)	(1,0)	(1,0)	(1,0)	(1,0)	(1,0)	(1,0)	
L1D -275>	(1,0)	(1,0)	(1,0)	(1,0)	(1,0)	(1,0)	(1,0)	(1,0)	(1,0)	(1,0)	(1,0)	(1,0)	(1,0)	(1,0)	(1,0)	(1,0)	
L1D -274>	(252,87)	(0,38)	(282,10)	(29,4)	(23,7)	(-6,5)	(256,2)	(1,0)	(1,0)	(1,0)	(1,0)	(1,0)	(1,0)	(1,0)	(1,0)	(1,0)	
L1D -273>	(1,0)	(1,0)	(1,0)	(1,0)	(1,0)	(1,0)	(1,0)	(1,0)	(1,0)	(1,0)	(1,0)	(1,0)	(1,0)	(1,0)	(1,0)	(1,0)	
L1D -272>	(280,2)	(1,0)	(1,0)	(1,0)	(1,0)	(1,0)	(1,0)	(1,0)	(1,0)	(1,0)	(1,0)	(1,0)	(1,0)	(1,0)	(1,0)	(1,0)	
L1D -271>	(271,1)	(-59,1)	(1,0)	(1,0)	(1,0)	(1,0)	(1,0)	(1,0)	(1,0)	(1,0)	(1,0)	(1,0)	(1,0)	(1,0)	(1,0)	(1,0)	
L1D -270>	(29,2)	(1,0)	(1,0)	(1,0)	(1,0)	(1,0)	(1,0)	(1,0)	(1,0)	(1,0)	(1,0)	(1,0)	(1,0)	(1,0)	(1,0)	(1,0)	
L1D -269>	(1,0)	(1,0)	(1,0)	(1,0)	(1,0)	(1,0)	(1,0)	(1,0)	(1,0)	(1,0)	(1,0)	(1,0)	(1,0)	(1,0)	(1,0)	(1,0)	
L1D -268>	(0,3)	(1,0)	(1,0)	(1,0)	(1,0)	(1,0)	(1,0)	(1,0)	(1,0)	(1,0)	(1,0)	(1,0)	(1,0)	(1,0)	(1,0)	(1,0)	
L1D -267>	(1,0)	(1,0)	(1,0)	(1,0)	(1,0)	(1,0)	(1,0)	(1,0)	(1,0)	(1,0)	(1,0)	(1,0)	(1,0)	(1,0)	(1,0)	(1,0)	
L1D -266>	(274,3)	(29,3)	(1,0)	(1,0)	(1,0)	(1,0)	(1,0)	(1,0)	(1,0)	(1,0)	(1,0)	(1,0)	(1,0)	(1,0)	(1,0)	(1,0)	
L1D -265>	(1,0)	(1,0)	(1,0)	(1,0)	(1,0)	(1,0)	(1,0)	(1,0)	(1,0)	(1,0)	(1,0)	(1,0)	(1,0)	(1,0)	(1,0)	(1,0)	
L1D -264>	(79,2)	(1,0)	(1,0)	(1,0)	(1,0)	(1,0)	(1,0)	(1,0)	(1,0)	(1,0)	(1,0)	(1,0)	(1,0)	(1,0)	(1,0)	(1,0)	
L1D -263>	(1,0)	(1,0)	(1,0)	(1,0)	(1,0)	(1,0)	(1,0)	(1,0)	(1,0)	(1,0)	(1,0)	(1,0)	(1,0)	(1,0)	(1,0)	(1,0)	
L1D -262>	(1,0)	(1,0)	(1,0)	(1,0)	(1,0)	(1,0)	(1,0)	(1,0)	(1,0)	(1,0)	(1,0)	(1,0)	(1,0)	(1,0)	(1,0)	(1,0)	
L1D -261>	(-8,1)	(1,0)	(1,0)	(1,0)	(1,0)	(1,0)	(1,0)	(1,0)	(1,0)	(1,0)	(1,0)	(1,0)	(1,0)	(1,0)	(1,0)	(1,0)	
L1D -260>	(0,1)	(1,0)	(1,0)	(1,0)	(1,0)	(1,0)	(1,0)	(1,0)	(1,0)	(1,0)	(1,0)	(1,0)	(1,0)	(1,0)	(1,0)	(1,0)	
L1D -259>	(4,2)	(1,0)	(1,0)	(1,0)	(1,0)	(1,0)	(1,0)	(1,0)	(1,0)	(1,0)	(1,0)	(1,0)	(1,0)	(1,0)	(1,0)	(1,0)	
L1D -258>	(266,7)	(23,2)	(1,0)	(1,0)	(1,0)	(1,0)	(1,0)	(1,0)	(1,0)	(1,0)	(1,0)	(1,0)	(1,0)	(1,0)	(1,0)	(1,0)	
L1D -257>	(2,1)	(1,0)	(1,0)	(1,0)	(1,0)	(1,0)	(1,0)	(1,0)	(1,0)	(1,0)	(1,0)	(1,0)	(1,0)	(1,0)	(1,0)	(1,0)	
L1D -256>	(4,1)	(-5,1)	(1,1)	(1,0)	(1,0)	(1,0)	(1,0)	(1,0)	(1,0)	(1,0)	(1,0)	(1,0)	(1,0)	(1,0)	(1,0)	(1,0)	
L1D -255>	(79,1)	(1,1)	(168,1)	(1,0)	(1,0)	(1,0)	(1,0)	(1,0)	(1,0)	(1,0)	(1,0)	(1,0)	(1,0)	(1,0)	(1,0)	(1,0)	
L1D -254>	(1,1)	(167,1)	(1,0)	(1,0)	(1,0)	(1,0)	(1,0)	(1,0)	(1,0)	(1,0)	(1,0)	(1,0)	(1,0)	(1,0)	(1,0)	(1,0)	
L1D -253>	(1,1)	(79,12)	(2,1)	(1,0)	(1,0)	(1,0)	(1,0)	(1,0)	(1,0)	(1,0)	(1,0)	(1,0)	(1,0)	(1,0)	(1,0)	(1,0)	
L1D -252>	(165,1)	(84,4)	(0,3)	(1,1)	(1,0)	(1,0)	(1,0)	(1,0)	(1,0)	(1,0)	(1,0)	(1,0)	(1,0)	(1,0)	(1,0)	(1,0)	
L1D -251>	(84,120)	(0,77)	(164,2)	(1,1)	(76,2)	(229,1)	(79,2)	(96,1)	(1,0)	(1,0)	(1,0)	(1,0)	(1,0)	(1,0)	(1,0)	(1,0)	
L1D -250>	(-6,3)	(2,2)	(163,1)	(258,1)	(1,0)	(1,0)	(1,0)	(1,0)	(1,0)	(1,0)	(1,0)	(1,0)	(1,0)	(1,0)	(1,0)	(1,0)	
L1D -249>	(1,0)	(1,0)	(1,0)	(1,0)	(1,0)	(1,0)	(1,0)	(1,0)	(1,0)	(1,0)	(1,0)	(1,0)	(1,0)	(1,0)	(1,0)	(1,0)	
L1D -248>	(161,2)	(256,3)	(1,0)	(1,0)	(1,0)	(1,0)	(1,0)	(1,0)	(1,0)	(1,0)	(1,0)	(1,0)	(1,0)	(1,0)	(1,0)	(1,0)	
L1D -247>	(160,2)	(1,0)	(1,0)	(1,0)	(1,0)	(1,0)	(1,0)	(1,0)	(1,0)	(1,0)	(1,0)	(1,0)	(1,0)	(1,0)	(1,0)	(1,0)	
L1D -246>	(159,1)	(4,3)	(0,1)	(1,1)	(1,0)	(1,0)	(1,0)	(1,0)	(1,0)	(1,0)	(1,0)	(1,0)	(1,0)	(1,0)	(1,0)	(1,0)	
L1D -245>	(0,3)	(79,3)	(2,2)	(1,0)	(1,0)	(1,0)	(1,0)	(1,0)	(1,0)	(1,0)	(1,0)	(1,0)	(1,0)	(1,0)	(1,0)	(1,0)	
L1D -244>	(1,1)	(252,1)	(157,1)	(1,0)	(1,0)	(1,0)	(1,0)	(1,0)	(1,0)	(1,0)	(1,0)	(1,0)	(1,0)	(1,0)	(1,0)	(1,0)	
L1D -243>	(250,13)	(156,2)	(251,2)	(155,1)	(1,0)	(1,0)	(1,0)	(1,0)	(1,0)	(1,0)	(1,0)	(1,0)	(1,0)	(1,0)	(1,0)	(1,0)	
L1D -242>	(250,79)	(0,3)	(155,1)	(2,2)	(-6,1)	(1,0)	(1,0)	(1,0)	(1,0)	(1,0)	(1,0)	(1,0)	(1,0)	(1,0)	(1,0)	(1,0)	
L1D -241>	(1,0)	(1,0)	(1,0)	(1,0)	(1,0)	(1,0)	(1,0)	(1,0)	(1,0)	(1,0)	(1,0)	(1,0)	(1,0)	(1,0)	(1,0)	(1,0)	
L1D -240>	(153,2)	(1,0)	(1,0)	(1,0)	(1,0)	(1,0)	(1,0)	(1,0)	(1,0)	(1,0)	(1,0)	(1,0)	(1,0)	(1,0)	(1,0)	(1,0)	
L1D -239>	(1,1)	(151,1)	(152,1)	(1,0)	(1,0)	(1,0)	(1,0)	(1,0)	(1,0)	(1,0)	(1,0)	(1,0)	(1,0)	(1,0)	(1,0)	(1,0)	
L1D -238>	(-70,1)	(1,1)	(1,0)	(1,0)	(1,0)	(1,0)	(1,0)	(1,0)	(1,0)	(1,0)	(1,0)	(1,0)	(1,0)	(1,0)	(1,0)	(1,0)	
L1D -237>	(79,1)	(2,2)	(149,1)	(245,1)	(1,0)	(1,0)	(1,0)	(1,0)	(1,0)	(1,0)	(1,0)	(1,0)	(1,0)	(1,0)	(1,0)	(1,0)	
L1D -236>	(149,1)	(1,0)	(1,0)	(1,0)	(1,0)	(1,0)	(1,0)	(1,0)	(1,0)	(1,0)	(1,0)	(1,0)	(1,0)	(1,0)	(1,0)	(1,0)	
L1D -235>	(148,1)	(242,1)	(1,1)	(1,0)	(1,0)	(1,0)	(1,0)	(1,0)	(1,0)	(1,0)	(1,0)	(1,0)	(1,0)	(1,0)	(1,0)	(1,0)	
L1D -234>	(1,1)	(2,2)	(238,2)	(242,2)	(147,1)	(1,0)	(1,0)	(1,0)	(1,0)	(1,0)	(1,0)	(1,0)	(1,0)	(1,0)	(1,0)	(1,0)	
L1D -233>	(145,1)	(1,0)	(1,0)	(1,0)	(1,0)	(1,0)	(1,0)	(1,0)	(1,0)	(1,0)	(1,0)	(1,0)	(1,0)	(1,0)	(1,0)	(1,0)	
L1D -232>	(144,1)	(145,1)	(1,0)	(1,0)	(1,0)	(1,0)	(1,0)	(1,0)	(1,0)	(1,0)	(1,0)	(1,0)	(1,0)	(1,0)	(1,0)	(1,0)	
L1D -231>	(144,1)	(1,0)	(1,0)	(1,0)	(1,0)	(1,0)	(1,0)	(1,0)	(1,0)	(1,0)	(1,0)	(1,0)	(1,0)	(1,0)	(1,0)	(1,0)	
L1D -230>	(143,2)	(234,1)	(1,0)	(1,0)	(1,0)	(1,0)	(1,0)	(1,0)	(1,0)	(1,0)	(1,0)	(1,0)	(1,0)	(1,0)	(1,0)	(1,0)	
L1D -229>	(2,1)	(141,1)	(1,1)	(1,0)	(1,0)	(1,0)	(1,0)	(1,0)	(1,0)	(1,0)	(1,0)	(1,0)	(1,0)	(1,0)	(1,0)	(1,0)	
L1D -228>	(1,2)	(1,0)	(1,0)	(1,0)	(1,0)	(1,0)	(1,0)	(1,0)	(1,0)	(1,0)	(1,0)	(1,0)	(1,0)	(1,0)	(1,0)	(1,0)	
L1D -227>	(140,1)	(1,0)	(1,0)	(1,0)	(1,0)	(1,0)	(1,0)	(1,0)	(1,0)	(1,0)	(1,0)	(1,0)	(1,0)	(1,0)	(1,0)	(1,0)	
L1D -226>	(139,2)	(2,1)	(234,1)	(231,1)	(1,0)	(1,0)	(1,0)	(1,0)	(1,0)	(1,0)	(1,0)	(1,0)	(1,0)	(1,0)	(1,0)	(1,0)	
L1D -225>	(1,0)	(1,0)	(1,0)	(1,0)	(1,0)	(1,0)	(1,0)	(1,0)	(1,0)	(1,0)	(1,0)	(1,0)	(1,0)	(1,0)	(1,0)	(1,0)	
L1D -224>	(137,1)	(1,0)	(1,0)	(1,0)	(1,0)	(1,0)	(1,0)	(1,0)	(1,0)	(1,0)	(1,0)	(1,0)	(1,0)	(1,0)	(1,0)	(1,0)	
L1D -223>	(214,1)	(136,1)	(1,0)	(1,0)	(1,0)	(1,0)	(1,0)	(1,0)	(1,0)	(1,0)	(1,0)	(1,0)	(1,0)	(1,0)	(1,0)	(1,0)	
L1D -222>	(135,1)	(1,0)	(1,0)	(1,0)	(1,0)	(1,0)	(1,0)	(1,0)	(1,0)	(1,0)	(1,0)	(1,0)	(1,0)	(1,0)	(1,0)	(1,0)	
L1D -221>	(2,1)	(1,0)	(1,0)	(1,0)	(1,0)	(1,0)	(1,0)	(1,0)	(1,0)	(1,0)	(1,0)	(1,0)	(1,0)	(1,0)	(1,0)	(1,0)	
L1D -220>	(-9,1)	(2,1)	(1,0)	(1,0)	(1,0)	(1,0)	(1,0)	(1,0)	(1,0)	(1,0)	(1,0)	(1,0)	(1,0)	(1,0)	(1,0)	(1,0)	
L1D -219>	(226,1)	(132,1)	(38,1)	(1,0)	(1,0)	(1,0)	(1,0)	(1,0)	(1,0)	(1,0)	(1,0)	(1,0)	(1,0)	(1,0)	(1,0)	(1,0)	
L1D -218>	(226,7)	(131,1)	(2,1)	(1,0)	(1,0)	(1,0)	(1,0)	(1,0)	(1,0)	(1,0)	(1,0)	(1,0)	(1,0)	(1,0)	(1,0)	(1,0)	
L1D -217>	(1,0)	(1,0)	(1,0)	(1,0)	(1,0)	(1,0)	(1,0)	(1,0)	(1,0)	(1,0)	(1,0)	(1,0)	(1,0)	(1,0)	(1,0)	(1,0)	
L1D -216>	(129,1)	(1,0)	(1,0)	(1,0)	(1,0)	(1,0)	(1,0)	(1,0)	(1,0)	(1,0)	(1,0)	(1,0)	(1,0)	(1,0)	(1,0)	(1,0)	
L1D -215>	(1,1)	(168,7)	(169,3)	(1,0)	(1,0)	(1,0)	(1,0)	(1,0)	(1,0)	(1,0)	(1,0)	(1,0)	(1,0)	(1,0)	(1,0)	(1,0)	
L1D -214>	(127,1)	(1,0)	(1,0)	(1,0)	(1,0)	(1,0)	(1,0)	(1,0)	(1,0)	(1,0)	(1,0)	(1,0)	(1,0)	(1,0)	(1,0)	(1,0)	
L1D -213>	(59,1)	(2,1)	(1,0)	(1,0)	(1,0)	(1,0)	(1,0)	(1,0)	(1,0)	(1,0)	(1,0)	(1,0)	(1,0)	(1,0)	(1,0)	(1,0)	
L1D -212>	(125,1)	(1,0)	(1,0)	(1,0)	(1,0)	(1,0)	(1,0)	(1,0)	(1,0)	(1,0)	(1,0)	(1,0)	(1,0)	(1,0)	(1,0)	(1,0)	
L1D -211>	(201,55)	(-1,58)	(215,3)	(1,1)	(3,1)	(60,1)	(0,4)	(1,0)	(1,0)	(1,0)	(1,0)	(1,0)	(1,0)	(1,0)	(1,0)	(1,0)	
L1D -210>	(218,6)	(3,1)	(123,1)	(2,1)	(1,0)	(1,0)	(1,0)	(1,0)	(1,0)	(1,0)	(1,0)	(1,0)	(1,0)	(1,0)	(1,0)	(1,0)	
L1D -209>	(239,1)	(1,0)	(1,0)	(1,0)	(1,0)	(1,0)	(1,0)	(1,0)	(1,0)	(1,0)	(1,0)	(1,0)	(1,0)	(1,0)	(1,0)	(1,0)	
L1D -208>	(3,3)	(121,1)	(-1,3)	(1,0)	(1,0)	(1,0)	(1,0)	(1,0)	(1,0)	(1,0)	(1,0)	(1,0)	(1,0)	(1,0)	(1,0)	(1,0)	
L1D -207>	(210,111)	(-1,50)	(201,32)	(120,1)	(6,2)	(56,1)	(3,1)	(383,1)	(0,1)	(1,0)	(1,0)	(1,0)	(1,0)	(1,0)	(1,0)	(1,0)	
L1D -206>	(1,1)	(1,0)	(1,0)	(1,0)	(1,0)	(1,0)	(1,0)	(1,0)	(1,0)	(1,0)	(1,0)	(1,0)	(1,0)	(1,0)	(1,0)	(1,0)	
L1D -205>	(2,1)	(1,0)	(1,0)	(1,0)	(1,0)	(1,0)	(1,0)	(1,0)	(1,0)	(1,0)	(1,0)	(1,0)	(1,0)	(1,0)	(1,0)	(1,0)	
L1D -204>	(1,3)	(3,3)	(117,1)	(1,0)	(1,0)	(1,0)	(1,0)	(1,0)	(1,0)	(1,0)	(1,0)	(1,0)	(1,0)	(1,0)	(1,0)	(1,0)	
L1D -203>	(3,4)	(116,1)	(1,0)	(1,0)	(1,0)	(1,0)	(1,0)	(1,0)	(1,0)	(1,0)	(1,0)	(1,0)	(1,0)	(1,0)	(1,0)	(1,0)	
L1D -202>	(0,3)	(210,2)	(115,1)	(2,1)	(10,2)	(1,0)	(1,0)	(1,0)	(1,0)	(1,0)	(1,0)	(1,0)	(1,0)	(1,0)	(1,0)	(1,0)	
L1D -201>	(3,1)	(113,1)	(383,17)	(0,9)	(1,0)	(1,0)	(1,0)	(1,0)	(1,0)	(1,0)	(1,0)	(1,0)	(1,0)	(1,0)	(1,0)	(1,0)	
L1D -200>	(3,2)	(1,0)	(1,0)	(1,0)	(1,0)	(1,0)	(1,0)	(1,0)	(1,0)	(1,0)	(1,0)	(1,0)	(1,0)	(1,0)	(1,0)	(1,0)	
L1D -199>	(8,94)	(-8,80)	(-2,14)	(3,1)	(112,1)	(111,1)	(1,0)	(1,0)	(1,0)	(1,0)	(1,0)	(1,0)	(1,0)	(1,0)	(1,0)	(1,0)	
L1D -198>	(3,5)	(199,2)	(1,0)	(1,0)	(1,0)	(1,0)	(1,0)	(1,0)	(1,0)	(1,0)	(1,0)	(1,0)	(1,0)	(1,0)	(1,0)	(1,0)	
L1D -197>	(2,1)	(109,1)	(1,0)	(1,0)	(1,0)	(1,0)	(1,0)	(1,0)	(1,0)	(1,0)	(1,0)	(1,0)	(1,0)	(1,0)	(1,0)	(1,0)	
L1D -196>	(8,94)	(3,2)	(1,0)	(1,0)	(1,0)	(1,0)	(1,0)	(1,0)	(1,0)	(1,0)	(1,0)	(1,0)	(1,0)	(1,0)	(1,0)	(1,0)	
L1D -195>	(1,81)	(0,3)	(3,4)	(199,2)	(1,0)	(1,0)	(1,0)	(1,0)	(1,0)	(1,0)	(1,0)	(1,0)	(1,0)	(1,0)	(1,0)	(1,0)	
L1D -194>	(202,4)	(1,1)	(2,1)	(1,0)	(1,0)	(1,0)	(1,0)	(1,0)	(1,0)	(1,0)	(1,0)	(1,0)	(1,0)	(1,0)	(1,0)	(1,0)	
L1D -193>	(105,1)	(1,0)	(1,0)	(1,0)	(1,0)	(1,0)	(1,0)	(1,0)	(1,0)	(1,0)	(1,0)	(1,0)	(1,0)	(1,0)	(1,0)	(1,0)	
L1D -192>	(3,3)	(104,1)	(1,0)	(1,0)	(1,0)	(1,0)	(1,0)	(1,0)	(1,0)	(1,0)	(1,0)	(1,0)	(1,0)	(1,0)	(1,0)	(1,0)	
L1D -191>	(3,9)	(103,1)	(1,0)	(1,0)	(1,0)	(1,0)	(1,0)	(1,0)	(1,0)	(1,0)	(1,0)	(1,0)	(1,0)	(1,0)	(1,0)	(1,0)	
L1D -190>	(3,6)	(2,1)	(1,0)	(1,0)	(1,0)	(1,0)	(1,0)	(1,0)	(1,0)	(1,0)	(1,0)	(1,0)	(1,0)	(1,0)	(1,0)	(1,0)	
L1D -189>	(20,1)	(1,0)	(1,0)	(1,0)	(1,0)	(1,0)	(1,0)	(1,0)	(1,0)	(1,0)	(1,0)	(1,0)	(1,0)	(1,0)	(1,0)	(1,0)	
L1D -188>	(188,27)	(196,1)	(0,1)	(3,7)	(20,2)	(21,1)	(101,1)	(1,0)	(1,0)	(1,0)	(1,0)	(1,0)	(1,0)	(1,0)	(1,0)	(1,0)	
L1D -187>	(3,16)	(100,1)	(1,0)	(1,0)	(1,0)	(1,0)	(1,0)	(1,0)	(1,0)	(1,0)	(1,0)	(1,0)	(1,0)	(1,0)	(1,0)	(1,0)	
L1D -186>	(3,1)	(194,6)	(99,1)	(2,1)	(1,0)	(1,0)	(1,0)	(1,0)	(1,0)	(1,0)	(1,0)	(1,0)	(1,0)	(1,0)	(1,0)	(1,0)	
L1D -185>	(170,1)	(-207,102)	(20,9)	(3,2)	(97,1)	(1,0)	(1,0)	(1,0)	(1,0)	(1,0)	(1,0)	(1,0)	(1,0)	(1,0)	(1,0)	(1,0)	
L1D -184>	(21,1)	(3,4)	(96,1)	(1,0)	(1,0)	(1,0)	(1,0)	(1,0)	(1,0)	(1,0)	(1,0)	(1,0)	(1,0)	(1,0)	(1,0)	(1,0)	
L1D -183>	(-1,3)	(20,1)	(95,1)	(1,0)	(1,0)	(1,0)	(1,0)	(1,0)	(1,0)	(1,0)	(1,0)	(1,0)	(1,0)	(1,0)	(1,0)	(1,0)	
L1D -182>	(20,2)	(1,0)	(1,0)	(1,0)	(1,0)	(1,0)	(1,0)	(1,0)	(1,0)	(1,0)	(1,0)	(1,0)	(1,0)	(1,0)	(1,0)	(1,0)	
L1D -181>	(20,8)	(21,2)	(2,1)	(1,0)	(1,0)	(1,0)	(1,0)	(1,0)	(1,0)	(1,0)	(1,0)	(1,0)	(1,0)	(1,0)	(1,0)	(1,0)	
L1D -180>	(4,1)	(20,4)	(21,2)	(93,1)	(1,0)	(1,0)	(1,0)	(1,0)	(1,0)	(1,0)	(1,0)	(1,0)	(1,0)	(1,0)	(1,0)	(1,0)	
L1D -179>	(3,14)	(21,1)	(92,1)	(1,0)	(1,0)	(1,0)	(1,0)	(1,0)	(1,0)	(1,0)	(1,0)	(1,0)	(1,0)	(1,0)	(1,0)	(1,0)	
L1D -178>	(41,80)	(3,2)	(91,1)	(1,0)	(1,0)	(1,0)	(1,0)	(1,0)	(1,0)	(1,0)	(1,0)	(1,0)	(1,0)	(1,0)	(1,0)	(1,0)	
L1D -177>	(174,1)	(182,1)	(20,15)	(21,3)	(13,1)	(3,1)	(1,0)	(1,0)	(1,0)	(1,0)	(1,0)	(1,0)	(1,0)	(1,0)	(1,0)	(1,0)	
L1D -176>	(9,3)	(20,3)	(3,16)	(21,2)	(1,0)	(1,0)	(1,0)	(1,0)	(1,0)	(1,0)	(1,0)	(1,0)	(1,0)	(1,0)	(1,0)	(1,0)	
L1D -175>	(-73,3)	(-140,77)	(20,3)	(147,1)	(1,0)	(1,0)	(1,0)	(1,0)	(1,0)	(1,0)	(1,0)	(1,0)	(1,0)	(1,0)	(1,0)	(1,0)	
L1D -174>	(17,4)	(1,0)	(1,0)	(1,0)	(1,0)	(1,0)	(1,0)	(1,0)	(1,0)	(1,0)	(1,0)	(1,0)	(1,0)	(1,0)	(1,0)	(1,0)	
L1D -173>	(20,17)	(1,0)	(1,0)	(1,0)	(1,0)	(1,0)	(1,0)	(1,0)	(1,0)	(1,0)	(1,0)	(1,0)	(1,0)	(1,0)	(1,0)	(1,0)	
L1D -172>	(3,1)	(140,3)	(20,8)	(21,2)	(150,1)	(1,1)	(1,0)	(1,0)	(1,0)	(1,0)	(1,0)	(1,0)	(1,0)	(1,0)	(1,0)	(1,0)	
L1D -171>	(-46,2)	(3,1)	(1,0)	(1,0)	(1,0)	(1,0)	(1,0)	(1,0)	(1,0)	(1,0)	(1,0)	(1,0)	(1,0)	(1,0)	(1,0)	(1,0)	
L1D -170>	(0,79)	(202,2)	(1,0)	(1,0)	(1,0)	(1,0)	(1,0)	(1,0)	(1,0)	(1,0)	(1,0)	(1,0)	(1,0)	(1,0)	(1,0)	(1,0)	
L1D -169>	(141,1)	(0,8)	(168,5)	(1,3)	(84,1)	(20,15)	(166,6)	(1,0)	(1,0)	(1,0)	(1,0)	(1,0)	(1,0)	(1,0)	(1,0)	(1,0)	
L1D -168>	(168,108)	(0,24)	(1,8)	(169,2)	(84,8)	(-168,6)	(-167,1)	(-166,17)	(252,2)	(20,3)	(21,3)	(336,2)	(166,6)	(1,0)	(1,0)	(1,0)	
L1D -167>	(168,1)	(20,2)	(0,70)	(-168,0)	(84,40)	(335,0)	(1,73)	(1,0)	(1,0)	(1,0)	(1,0)	(1,0)	(1,0)	(1,0)	(1,0)	(1,0)	
L1D -166>	(0,97)	(1,20)	(168,104)	(2,1)	(336,5)	(1,0)	(1,0)	(1,0)	(1,0)	(1,0)	(1,0)	(1,0)	(1,0)	(1,0)	(1,0)	(1,0)	
L1D -165>	(20,51)	(5,2)	(162,35)	(21,2)	(-46,1)	(1,0)	(1,0)	(1,0)	(1,0)	(1,0)	(1,0)	(1,0)	(1,0)	(1,0)	(1,0)	(1,0)	
L1D -164>	(-223,1)	(21,6)	(20,13)	(-46,3)	(162,3)	(-11,1)	(1,0)	(1,0)	(1,0)	(1,0)	(1,0)	(1,0)	(1,0)	(1,0)	(1,0)	(1,0)	
L1D -163>	(5,3)	(162,6)	(21,1)	(-46,1)	(1,0)	(1,0)	(1,0)	(1,0)	(1,0)	(1,0)	(1,0)	(1,0)	(1,0)	(1,0)	(1,0)	(1,0)	
L1D -162>	(5,3)	(162,4)	(1,0)	(1,0)	(1,0)	(1,0)	(1,0)	(1,0)	(1,0)	(1,0)	(1,0)	(1,0)	(1,0)	(1,0)	(1,0)	(1,0)	
L1D -161>	(20,47)	(0,1)	(5,3)	(-46,1)	(158,34)	(130,1)	(21,1)	(1,0)	(1,0)	(1,0)	(1,0)	(1,0)	(1,0)	(1,0)	(1,0)	(1,0)	
L1D -160>	(0,20)	(168,35)	(130,4)	(-2,6)	(122,1)	(-318,4)	(20,9)	(5,4)	(158,14)	(21,2)	(1,0)	(1,0)	(1,0)	(1,0)	(1,0)	(1,0)	
L1D -159>	(-126,1)	(20,9)	(5,3)	(-46,1)	(1,0)	(1,0)	(1,0)	(1,0)	(1,0)	(1,0)	(1,0)	(1,0)	(1,0)	(1,0)	(1,0)	(1,0)	
L1D -158>	(130,1)	(20,4)	(5,28)	(-46,6)	(160,1)	(1,0)	(1,0)	(1,0)	(1,0)	(1,0)	(1,0)	(1,0)	(1,0)	(1,0)	(1,0)	(1,0)	
L1D -157>	(154,55)	(-95,6)	(-94,10)	(21,1)	(1,0)	(1,0)	(1,0)	(1,0)	(1,0)	(1,0)	(1,0)	(1,0)	(1,0)	(1,0)	(1,0)	(1,0)	
L1D -156>	(0,4)	(154,13)	(2,1)	(1,0)	(1,0)	(1,0)	(1,0)	(1,0)	(1,0)	(1,0)	(1,0)	(1,0)	(1,0)	(1,0)	(1,0)	(1,0)	
L1D -155>	(154,13)	(14,1)	(-46,1)	(-20,1)	(5,1)	(1,0)	(1,0)	(1,0)	(1,0)	(1,0)	(1,0)	(1,0)	(1,0)	(1,0)	(1,0)	(1,0)	
L1D -154>	(14,1)	(154,3)	(5,1)	(1,0)	(1,0)	(1,0)	(1,0)	(1,0)	(1,0)	(1,0)	(1,0)	(1,0)	(1,0)	(1,0)	(1,0)	(1,0)	
L1D -153>	(20,78)	(150,70)	(1,0)	(1,0)	(1,0)	(1,0)	(1,0)	(1,0)	(1,0)	(1,0)	(1,0)	(1,0)	(1,0)	(1,0)	(1,0)	(1,0)	
L1D -152>	(21,9)	(20,9)	(150,26)	(-20,3)	(1,0)	(1,0)	(1,0)	(1,0)	(1,0)	(1,0)	(1,0)	(1,0)	(1,0)	(1,0)	(1,0)	(1,0)	
L1D -151>	(20,13)	(21,1)	(14,4)	(1,0)	(1,0)	(1,0)	(1,0)	(1,0)	(1,0)	(1,0)	(1,0)	(1,0)	(1,0)	(1,0)	(1,0)	(1,0)	
L1D -150>	(56,1)	(20,2)	(21,4)	(158,1)	(1,0)	(1,0)	(1,0)	(1,0)	(1,0)	(1,0)	(1,0)	(1,0)	(1,0)	(1,0)	(1,0)	(1,0)	
L1D -149>	(157,1)	(21,4)	(146,68)	(1,0)	(1,0)	(1,0)	(1,0)	(1,0)	(1,0)	(1,0)	(1,0)	(1,0)	(1,0)	(1,0)	(1,0)	(1,0)	
L1D -148>	(147,1)	(-207,14)	(146,8)	(131,2)	(-45,1)	(148,1)	(192,1)	(1,0)	(1,0)	(1,0)	(1,0)	(1,0)	(1,0)	(1,0)	(1,0)	(1,0)	
L1D -147>	(-1,5)	(-140,23)	(146,4)	(147,1)	(-45,1)	(3,5)	(1,0)	(1,0)	(1,0)	(1,0)	(1,0)	(1,0)	(1,0)	(1,0)	(1,0)	(1,0)	
L1D -146>	(-46,1)	(5,1)	(146,3)	(14,1)	(1,0)	(1,0)	(1,0)	(1,0)	(1,0)	(1,0)	(1,0)	(1,0)	(1,0)	(1,0)	(1,0)	(1,0)	
L1D -145>	(142,90)	(5,0)	(20,0)	(149,0)	(1,0)	(1,0)	(1,0)	(1,0)	(1,0)	(1,0)	(1,0)	(1,0)	(1,0)	(1,0)	(1,0)	(1,0)	
L1D -144>	(-67,1)	(142,66)	(-211,59)	(5,2)	(188,1)	(144,1)	(-143,1)	(20,2)	(1,0)	(1,0)	(1,0)	(1,0)	(1,0)	(1,0)	(1,0)	(1,0)	
L1D -143>	(133,1)	(-46,1)	(5,1)	(-68,8)	(1,0)	(1,0)	(1,0)	(1,0)	(1,0)	(1,0)	(1,0)	(1,0)	(1,0)	(1,0)	(1,0)	(1,0)	
L1D -142>	(5,2)	(-219,1)	(1,0)	(1,0)	(1,0)	(1,0)	(1,0)	(1,0)	(1,0)	(1,0)	(1,0)	(1,0)	(1,0)	(1,0)	(1,0)	(1,0)	
L1D -141>	(138,69)	(5,0)	(-46,0)	(149,0)	(-172,0)	(1,0)	(1,0)	(1,0)	(1,0)	(1,0)	(1,0)	(1,0)	(1,0)	(1,0)	(1,0)	(1,0)	
L1D -140>	(139,34)	(138,32)	(287,37)	(-68,11)	(-46,1)	(5,1)	(20,4)	(315,18)	(164,2)	(1,0)	(1,0)	(1,0)	(1,0)	(1,0)	(1,0)	(1,0)	
L1D -139>	(7,1)	(-68,2)	(138,34)	(5,2)	(14,5)	(0,1)	(1,0)	(1,0)	(1,0)	(1,0)	(1,0)	(1,0)	(1,0)	(1,0)	(1,0)	(1,0)	
L1D -138>	(5,1)	(-46,3)	(138,12)	(1,0)	(1,0)	(1,0)	(1,0)	(1,0)	(1,0)	(1,0)	(1,0)	(1,0)	(1,0)	(1,0)	(1,0)	(1,0)	
L1D -137>	(5,2)	(20,2)	(-46,2)	(139,1)	(1,0)	(1,0)	(1,0)	(1,0)	(1,0)	(1,0)	(1,0)	(1,0)	(1,0)	(1,0)	(1,0)	(1,0)	
L1D -136>	(5,2)	(-46,2)	(1,0)	(1,0)	(1,0)	(1,0)	(1,0)	(1,0)	(1,0)	(1,0)	(1,0)	(1,0)	(1,0)	(1,0)	(1,0)	(1,0)	
L1D -135>	(139,1)	(-46,3)	(5,1)	(137,1)	(1,0)	(1,0)	(1,0)	(1,0)	(1,0)	(1,0)	(1,0)	(1,0)	(1,0)	(1,0)	(1,0)	(1,0)	
L1D -134>	(5,2)	(-46,2)	(0,1)	(1,0)	(1,0)	(1,0)	(1,0)	(1,0)	(1,0)	(1,0)	(1,0)	(1,0)	(1,0)	(1,0)	(1,0)	(1,0)	
L1D -133>	(135,0)	(130,112)	(-46,0)	(1,0)	(1,0)	(1,0)	(1,0)	(1,0)	(1,0)	(1,0)	(1,0)	(1,0)	(1,0)	(1,0)	(1,0)	(1,0)	
L1D -132>	(8,2)	(130,53)	(5,1)	(1,0)	(1,0)	(1,0)	(1,0)	(1,0)	(1,0)	(1,0)	(1,0)	(1,0)	(1,0)	(1,0)	(1,0)	(1,0)	
L1D -131>	(130,46)	(133,1)	(1,0)	(1,0)	(1,0)	(1,0)	(1,0)	(1,0)	(1,0)	(1,0)	(1,0)	(1,0)	(1,0)	(1,0)	(1,0)	(1,0)	
L1D -130>	(130,15)	(5,1)	(132,1)	(1,0)	(1,0)	(1,0)	(1,0)	(1,0)	(1,0)	(1,0)	(1,0)	(1,0)	(1,0)	(1,0)	(1,0)	(1,0)	
L1D -129>	(131,1)	(1,0)	(1,0)	(1,0)	(1,0)	(1,0)	(1,0)	(1,0)	(1,0)	(1,0)	(1,0)	(1,0)	(1,0)	(1,0)	(1,0)	(1,0)	
L1D -128>	(31,57)	(111,1)	(1,0)	(1,0)	(1,0)	(1,0)	(1,0)	(1,0)	(1,0)	(1,0)	(1,0)	(1,0)	(1,0)	(1,0)	(1,0)	(1,0)	
L1D -127>	(0,5)	(-2,4)	(129,1)	(1,0)	(1,0)	(1,0)	(1,0)	(1,0)	(1,0)	(1,0)	(1,0)	(1,0)	(1,0)	(1,0)	(1,0)	(1,0)	
L1D -126>	(31,3)	(124,3)	(34,105)	(35,3)	(-46,1)	(5,6)	(1,0)	(1,0)	(1,0)	(1,0)	(1,0)	(1,0)	(1,0)	(1,0)	(1,0)	(1,0)	
L1D -125>	(1,1)	(0,42)	(-2,60)	(127,1)	(114,5)	(122,11)	(1,0)	(1,0)	(1,0)	(1,0)	(1,0)	(1,0)	(1,0)	(1,0)	(1,0)	(1,0)	
L1D -124>	(122,1)	(1,0)	(1,0)	(1,0)	(1,0)	(1,0)	(1,0)	(1,0)	(1,0)	(1,0)	(1,0)	(1,0)	(1,0)	(1,0)	(1,0)	(1,0)	
L1D -123>	(125,1)	(1,0)	(1,0)	(1,0)	(1,0)	(1,0)	(1,0)	(1,0)	(1,0)	(1,0)	(1,0)	(1,0)	(1,0)	(1,0)	(1,0)	(1,0)	
L1D -122>	(141,1)	(20,1)	(-25,1)	(0,4)	(1,0)	(1,0)	(1,0)	(1,0)	(1,0)	(1,0)	(1,0)	(1,0)	(1,0)	(1,0)	(1,0)	(1,0)	
L1D -121>	(2,4)	(121,1)	(1,5)	(93,2)	(123,1)	(4,2)	(1,0)	(1,0)	(1,0)	(1,0)	(1,0)	(1,0)	(1,0)	(1,0)	(1,0)	(1,0)	
L1D -120>	(-20,4)	(-1,1)	(-50,7)	(120,106)	(2,1)	(0,1)	(159,2)	(1,0)	(1,0)	(1,0)	(1,0)	(1,0)	(1,0)	(1,0)	(1,0)	(1,0)	
L1D -119>	(-51,1)	(-2,3)	(93,3)	(121,1)	(1,0)	(1,0)	(1,0)	(1,0)	(1,0)	(1,0)	(1,0)	(1,0)	(1,0)	(1,0)	(1,0)	(1,0)	
L1D -118>	(1,115)	(-8,2)	(-20,1)	(1,0)	(1,0)	(1,0)	(1,0)	(1,0)	(1,0)	(1,0)	(1,0)	(1,0)	(1,0)	(1,0)	(1,0)	(1,0)	
L1D -117>	(-20,1)	(0,3)	(119,1)	(56,1)	(1,0)	(1,0)	(1,0)	(1,0)	(1,0)	(1,0)	(1,0)	(1,0)	(1,0)	(1,0)	(1,0)	(1,0)	
L1D -116>	(-1,107)	(5,1)	(1,0)	(1,0)	(1,0)	(1,0)	(1,0)	(1,0)	(1,0)	(1,0)	(1,0)	(1,0)	(1,0)	(1,0)	(1,0)	(1,0)	
L1D -115>	(117,1)	(1,0)	(1,0)	(1,0)	(1,0)	(1,0)	(1,0)	(1,0)	(1,0)	(1,0)	(1,0)	(1,0)	(1,0)	(1,0)	(1,0)	(1,0)	
L1D -114>	(114,46)	(125,45)	(1,0)	(1,0)	(1,0)	(1,0)	(1,0)	(1,0)	(1,0)	(1,0)	(1,0)	(1,0)	(1,0)	(1,0)	(1,0)	(1,0)	
L1D -113>	(1,74)	(8,1)	(2,40)	(4,1)	(115,1)	(1,0)	(1,0)	(1,0)	(1,0)	(1,0)	(1,0)	(1,0)	(1,0)	(1,0)	(1,0)	(1,0)	
L1D -112>	(112,1)	(114,1)	(12,111)	(2,4)	(100,1)	(11,1)	(1,0)	(1,0)	(1,0)	(1,0)	(1,0)	(1,0)	(1,0)	(1,0)	(1,0)	(1,0)	
L1D -111>	(111,1)	(113,1)	(1,0)	(1,0)	(1,0)	(1,0)	(1,0)	(1,0)	(1,0)	(1,0)	(1,0)	(1,0)	(1,0)	(1,0)	(1,0)	(1,0)	
L1D -110>	(-1,1)	(1,0)	(1,0)	(1,0)	(1,0)	(1,0)	(1,0)	(1,0)	(1,0)	(1,0)	(1,0)	(1,0)	(1,0)	(1,0)	(1,0)	(1,0)	
L1D -109>	(4,1)	(2,11)	(0,4)	(101,2)	(111,1)	(1,0)	(1,0)	(1,0)	(1,0)	(1,0)	(1,0)	(1,0)	(1,0)	(1,0)	(1,0)	(1,0)	
L1D -108>	(100,6)	(2,15)	(4,1)	(1,0)	(1,0)	(1,0)	(1,0)	(1,0)	(1,0)	(1,0)	(1,0)	(1,0)	(1,0)	(1,0)	(1,0)	(1,0)	
L1D -107>	(-14,14)	(107,11)	(-178,79)	(109,1)	(0,1)	(1,0)	(1,0)	(1,0)	(1,0)	(1,0)	(1,0)	(1,0)	(1,0)	(1,0)	(1,0)	(1,0)	
L1D -106>	(80,68)	(-13,6)	(-14,19)	(0,2)	(106,21)	(78,1)	(1,0)	(1,0)	(1,0)	(1,0)	(1,0)	(1,0)	(1,0)	(1,0)	(1,0)	(1,0)	
L1D -105>	(105,103)	(109,93)	(2,6)	(0,21)	(107,1)	(1,0)	(1,0)	(1,0)	(1,0)	(1,0)	(1,0)	(1,0)	(1,0)	(1,0)	(1,0)	(1,0)	
L1D -104>	(1,1)	(0,17)	(104,110)	(108,95)	(92,3)	(2,8)	(4,1)	(1,0)	(1,0)	(1,0)	(1,0)	(1,0)	(1,0)	(1,0)	(1,0)	(1,0)	
L1D -103>	(101,1)	(1,1)	(103,64)	(107,82)	(0,11)	(105,1)	(2,1)	(1,0)	(1,0)	(1,0)	(1,0)	(1,0)	(1,0)	(1,0)	(1,0)	(1,0)	
L1D -102>	(102,67)	(106,67)	(0,16)	(2,1)	(1,0)	(1,0)	(1,0)	(1,0)	(1,0)	(1,0)	(1,0)	(1,0)	(1,0)	(1,0)	(1,0)	(1,0)	
L1D -101>	(101,91)	(105,38)	(2,13)	(0,4)	(93,2)	(4,0)	(103,0)	(-16,1)	(1,0)	(1,0)	(1,0)	(1,0)	(1,0)	(1,0)	(1,0)	(1,0)	
L1D -100>	(100,87)	(104,38)	(2,10)	(0,6)	(4,1)	(1,0)	(1,0)	(1,0)	(1,0)	(1,0)	(1,0)	(1,0)	(1,0)	(1,0)	(1,0)	(1,0)	
L1D -99>	(72,103)	(99,80)	(0,32)	(103,106)	(2,6)	(101,2)	(4,3)	(1,0)	(1,0)	(1,0)	(1,0)	(1,0)	(1,0)	(1,0)	(1,0)	(1,0)	
L1D -98>	(98,96)	(102,103)	(-16,1)	(0,29)	(2,1)	(1,0)	(1,0)	(1,0)	(1,0)	(1,0)	(1,0)	(1,0)	(1,0)	(1,0)	(1,0)	(1,0)	
L1D -97>	(8,1)	(176,0)	(-259,0)	(97,111)	(101,58)	(105,16)	(0,57)	(2,6)	(93,38)	(99,1)	(251,1)	(1,0)	(1,0)	(1,0)	(1,0)	(1,0)	
L1D -96>	(96,100)	(100,52)	(104,20)	(7,5)	(2,10)	(-1,7)	(0,6)	(4,1)	(1,0)	(1,0)	(1,0)	(1,0)	(1,0)	(1,0)	(1,0)	(1,0)	
L1D -95>	(95,119)	(99,51)	(103,0)	(251,0)	(1,1)	(-2,53)	(0,20)	(6,2)	(97,1)	(228,0)	(1,0)	(1,0)	(1,0)	(1,0)	(1,0)	(1,0)	
L1D -94>	(94,124)	(98,124)	(-1,3)	(96,47)	(76,49)	(5,1)	(102,1)	(0,1)	(1,0)	(1,0)	(1,0)	(1,0)	(1,0)	(1,0)	(1,0)	(1,0)	
L1D -93>	(0,11)	(93,89)	(2,12)	(97,53)	(101,2)	(4,0)	(95,1)	(1,0)	(1,0)	(1,0)	(1,0)	(1,0)	(1,0)	(1,0)	(1,0)	(1,0)	
L1D -92>	(80,29)	(0,52)	(92,98)	(96,50)	(2,23)	(4,8)	(1,0)	(1,0)	(1,0)	(1,0)	(1,0)	(1,0)	(1,0)	(1,0)	(1,0)	(1,0)	
L1D -91>	(47,3)	(95,12)	(4,2)	(93,2)	(0,1)	(1,0)	(1,0)	(1,0)	(1,0)	(1,0)	(1,0)	(1,0)	(1,0)	(1,0)	(1,0)	(1,0)	
L1D -90>	(94,6)	(4,11)	(3,1)	(1,0)	(1,0)	(1,0)	(1,0)	(1,0)	(1,0)	(1,0)	(1,0)	(1,0)	(1,0)	(1,0)	(1,0)	(1,0)	
L1D -89>	(97,20)	(1,99)	(4,2)	(2,11)	(91,2)	(-8,1)	(1,0)	(1,0)	(1,0)	(1,0)	(1,0)	(1,0)	(1,0)	(1,0)	(1,0)	(1,0)	
L1D -88>	(79,1)	(97,1)	(9,1)	(88,3)	(89,1)	(-1,80)	(96,28)	(2,1)	(0,1)	(1,0)	(1,0)	(1,0)	(1,0)	(1,0)	(1,0)	(1,0)	
L1D -87>	(89,2)	(1,0)	(1,0)	(1,0)	(1,0)	(1,0)	(1,0)	(1,0)	(1,0)	(1,0)	(1,0)	(1,0)	(1,0)	(1,0)	(1,0)	(1,0)	
L1D -86>	(5,111)	(-1,16)	(2,6)	(86,14)	(-160,2)	(-8,1)	(14,78)	(24,1)	(0,1)	(84,1)	(1,1)	(13,3)	(1,0)	(1,0)	(1,0)	(1,0)	
L1D -85>	(4,1)	(200,1)	(87,2)	(2,4)	(1,2)	(7,1)	(56,1)	(0,1)	(1,0)	(1,0)	(1,0)	(1,0)	(1,0)	(1,0)	(1,0)	(1,0)	
L1D -84>	(2,0)	(15,1)	(4,0)	(84,77)	(71,0)	(33,0)	(17,0)	(196,0)	(0,4)	(85,1)	(168,0)	(72,1)	(88,0)	(-336,0)	(1,2)	(1,0)	
L1D -83>	(83,65)	(84,74)	(0,77)	(56,29)	(-11,2)	(4,1)	(5,1)	(-22,34)	(2,3)	(14,0)	(-1,0)	(167,0)	(-420,0)	(1,0)	(1,0)	(1,0)	
L1D -82>	(-11,1)	(54,1)	(56,1)	(52,2)	(48,1)	(45,1)	(25,1)	(7,1)	(67,1)	(66,1)	(49,1)	(55,1)	(82,5)	(86,4)	(-1,3)	(3,1)	
L1D -81>	(4,2)	(83,3)	(40,3)	(123,2)	(43,2)	(16,5)	(34,3)	(55,2)	(52,5)	(53,4)	(21,1)	(32,1)	(11,3)	(27,4)	(15,3)	(20,3)	
L1D -80>	(2,3)	(8,1)	(84,111)	(80,1)	(34,0)	(0,1)	(35,0)	(38,0)	(40,0)	(7,0)	(9,0)	(16,0)	(19,0)	(17,0)	(26,0)	(52,0)	
L1D -79>	(23,8)	(45,10)	(69,5)	(59,7)	(37,9)	(2,1)	(18,10)	(41,7)	(49,3)	(63,10)	(15,11)	(13,8)	(6,5)	(9,4)	(40,7)	(66,4)	
L1D -78>	(0,39)	(63,4)	(40,4)	(67,5)	(44,5)	(31,10)	(-23,14)	(86,1)	(17,3)	(26,5)	(36,5)	(22,5)	(78,11)	(9,7)	(12,8)	(48,4)	
L1D -77>	(23,4)	(28,7)	(31,10)	(55,8)	(-23,1)	(10,5)	(14,5)	(35,4)	(37,3)	(70,2)	(44,6)	(19,5)	(27,6)	(15,3)	(52,5)	(62,5)	
L1D -76>	(2,86)	(4,57)	(0,82)	(9,6)	(80,27)	(21,4)	(19,3)	(65,4)	(6,3)	(15,4)	(30,4)	(64,37)	(76,1)	(11,4)	(29,3)	(28,4)	
L1D -75>	(13,8)	(-1,1)	(35,4)	(21,7)	(15,7)	(11,8)	(23,4)	(18,7)	(64,5)	(53,7)	(10,5)	(45,5)	(14,8)	(39,6)	(16,5)	(12,9)	
L1D -74>	(8,12)	(46,9)	(78,1)	(45,9)	(34,9)	(47,8)	(40,9)	(17,12)	(44,13)	(3,22)	(54,12)	(7,20)	(24,12)	(16,13)	(59,12)	(4,13)	
L1D -73>	(41,7)	(14,10)	(12,11)	(5,10)	(56,12)	(52,7)	(61,6)	(28,8)	(7,7)	(29,9)	(0,5)	(22,9)	(-13,6)	(9,7)	(38,7)	(2,6)	
L1D -72>	(-1,0)	(74,0)	(76,98)	(72,1)	(4,0)	(2,5)	(0,3)	(-14,2)	(20,0)	(1,0)	(1,0)	(1,0)	(1,0)	(1,0)	(1,0)	(1,0)	
L1D -71>	(86,3)	(4,99)	(1,3)	(73,2)	(-8,2)	(0,1)	(7,1)	(1,0)	(1,0)	(1,0)	(1,0)	(1,0)	(1,0)	(1,0)	(1,0)	(1,0)	
L1D -70>	(43,5)	(70,18)	(74,2)	(-6,1)	(2,2)	(1,3)	(0,2)	(7,1)	(1,0)	(1,0)	(1,0)	(1,0)	(1,0)	(1,0)	(1,0)	(1,0)	
L1D -69>	(81,2)	(0,8)	(72,100)	(4,14)	(2,8)	(71,2)	(1,3)	(69,4)	(1,0)	(1,0)	(1,0)	(1,0)	(1,0)	(1,0)	(1,0)	(1,0)	
L1D -68>	(76,4)	(83,1)	(2,50)	(56,64)	(72,9)	(68,7)	(0,95)	(14,2)	(201,20)	(4,23)	(207,1)	(1,3)	(7,2)	(70,2)	(1,0)	(1,0)	
L1D -67>	(4,1)	(8,1)	(77,1)	(388,1)	(69,2)	(0,1)	(-1,1)	(14,1)	(1,0)	(1,0)	(1,0)	(1,0)	(1,0)	(1,0)	(1,0)	(1,0)	
L1D -66>	(75,1)	(79,1)	(0,4)	(-62,2)	(66,8)	(2,4)	(-5,1)	(4,1)	(70,1)	(-1,1)	(1,0)	(1,0)	(1,0)	(1,0)	(1,0)	(1,0)	
L1D -65>	(65,1)	(84,3)	(67,3)	(71,1)	(4,1)	(1,0)	(1,0)	(1,0)	(1,0)	(1,0)	(1,0)	(1,0)	(1,0)	(1,0)	(1,0)	(1,0)	
L1D -64>	(8,1)	(4,1)	(66,0)	(68,119)	(64,1)	(0,1)	(1,18)	(2,3)	(32,0)	(1,0)	(1,0)	(1,0)	(1,0)	(1,0)	(1,0)	(1,0)	
L1D -63>	(8,1)	(75,2)	(64,1)	(9,6)	(82,5)	(65,4)	(63,1)	(4,1)	(1,0)	(1,0)	(1,0)	(1,0)	(1,0)	(1,0)	(1,0)	(1,0)	
L1D -62>	(62,17)	(2,4)	(64,4)	(66,11)	(30,1)	(70,4)	(32,3)	(4,1)	(-2,17)	(1,0)	(1,0)	(1,0)	(1,0)	(1,0)	(1,0)	(1,0)	
L1D -61>	(60,1)	(4,7)	(63,6)	(2,3)	(1,2)	(1,0)	(1,0)	(1,0)	(1,0)	(1,0)	(1,0)	(1,0)	(1,0)	(1,0)	(1,0)	(1,0)	
L1D -60>	(65,1)	(4,59)	(2,107)	(60,16)	(64,58)	(7,3)	(0,27)	(62,2)	(1,4)	(3,1)	(1,0)	(1,0)	(1,0)	(1,0)	(1,0)	(1,0)	
L1D -59>	(7,3)	(3,1)	(61,4)	(1,2)	(-1,1)	(59,1)	(-56,2)	(2,1)	(4,1)	(1,0)	(1,0)	(1,0)	(1,0)	(1,0)	(1,0)	(1,0)	
L1D -58>	(78,1)	(58,20)	(2,6)	(62,3)	(0,1)	(4,1)	(-1,1)	(1,0)	(1,0)	(1,0)	(1,0)	(1,0)	(1,0)	(1,0)	(1,0)	(1,0)	
L1D -57>	(57,1)	(56,1)	(78,1)	(63,1)	(-1,1)	(-114,1)	(43,1)	(1,108)	(-22,21)	(59,3)	(2,1)	(1,0)	(1,0)	(1,0)	(1,0)	(1,0)	
L1D -56>	(2,3)	(60,105)	(56,1)	(0,0)	(4,0)	(-1,0)	(1,0)	(1,0)	(1,0)	(1,0)	(1,0)	(1,0)	(1,0)	(1,0)	(1,0)	(1,0)	
L1D -55>	(1,3)	(57,4)	(-56,2)	(1,0)	(1,0)	(1,0)	(1,0)	(1,0)	(1,0)	(1,0)	(1,0)	(1,0)	(1,0)	(1,0)	(1,0)	(1,0)	
L1D -54>	(52,1)	(54,1)	(58,6)	(-114,2)	(1,1)	(1,0)	(1,0)	(1,0)	(1,0)	(1,0)	(1,0)	(1,0)	(1,0)	(1,0)	(1,0)	(1,0)	
L1D -53>	(76,1)	(55,3)	(1,1)	(53,3)	(1,0)	(1,0)	(1,0)	(1,0)	(1,0)	(1,0)	(1,0)	(1,0)	(1,0)	(1,0)	(1,0)	(1,0)	
L1D -52>	(51,1)	(14,3)	(20,56)	(52,2)	(33,9)	(54,5)	(1,0)	(1,0)	(1,0)	(1,0)	(1,0)	(1,0)	(1,0)	(1,0)	(1,0)	(1,0)	
L1D -51>	(73,1)	(10,39)	(0,52)	(33,11)	(53,3)	(32,4)	(51,3)	(1,0)	(1,0)	(1,0)	(1,0)	(1,0)	(1,0)	(1,0)	(1,0)	(1,0)	
L1D -50>	(0,15)	(63,3)	(50,3)	(431,45)	(202,68)	(170,1)	(32,15)	(52,10)	(33,12)	(20,2)	(-15,1)	(18,1)	(1,0)	(1,0)	(1,0)	(1,0)	
L1D -49>	(29,1)	(33,5)	(32,18)	(8,7)	(51,2)	(1,1)	(1,0)	(1,0)	(1,0)	(1,0)	(1,0)	(1,0)	(1,0)	(1,0)	(1,0)	(1,0)	
L1D -48>	(2,94)	(4,2)	(32,20)	(50,6)	(33,13)	(48,5)	(1,0)	(1,0)	(1,0)	(1,0)	(1,0)	(1,0)	(1,0)	(1,0)	(1,0)	(1,0)	
L1D -47>	(49,3)	(1,3)	(5,17)	(47,1)	(4,1)	(32,1)	(1,0)	(1,0)	(1,0)	(1,0)	(1,0)	(1,0)	(1,0)	(1,0)	(1,0)	(1,0)	
L1D -46>	(217,1)	(51,16)	(1,7)	(-2,18)	(2,58)	(4,26)	(6,1)	(-28,2)	(46,1)	(48,3)	(40,1)	(-18,16)	(399,1)	(1,0)	(1,0)	(1,0)	
L1D -45>	(45,6)	(-28,1)	(47,3)	(10,1)	(-18,1)	(1,0)	(1,0)	(1,0)	(1,0)	(1,0)	(1,0)	(1,0)	(1,0)	(1,0)	(1,0)	(1,0)	
L1D -44>	(76,1)	(46,2)	(4,3)	(1,0)	(1,0)	(1,0)	(1,0)	(1,0)	(1,0)	(1,0)	(1,0)	(1,0)	(1,0)	(1,0)	(1,0)	(1,0)	
L1D -43>	(10,6)	(43,63)	(0,24)	(45,2)	(147,1)	(1,2)	(38,1)	(1,0)	(1,0)	(1,0)	(1,0)	(1,0)	(1,0)	(1,0)	(1,0)	(1,0)	
L1D -42>	(0,2)	(51,1)	(1,0)	(1,0)	(1,0)	(1,0)	(1,0)	(1,0)	(1,0)	(1,0)	(1,0)	(1,0)	(1,0)	(1,0)	(1,0)	(1,0)	
L1D -41>	(40,1)	(41,1)	(4,1)	(23,3)	(-9,8)	(73,3)	(165,5)	(0,4)	(43,2)	(154,15)	(11,2)	(1,0)	(1,0)	(1,0)	(1,0)	(1,0)	
L1D -40>	(20,101)	(6,44)	(40,2)	(4,3)	(38,11)	(34,2)	(12,1)	(-2,1)	(0,47)	(1,0)	(1,0)	(1,0)	(1,0)	(1,0)	(1,0)	(1,0)	
L1D -39>	(7,2)	(0,16)	(37,3)	(5,18)	(20,33)	(-9,16)	(41,2)	(1,1)	(40,1)	(2,1)	(1,0)	(1,0)	(1,0)	(1,0)	(1,0)	(1,0)	
L1D -38>	(0,5)	(44,4)	(-122,3)	(81,24)	(2,1)	(1,0)	(1,0)	(1,0)	(1,0)	(1,0)	(1,0)	(1,0)	(1,0)	(1,0)	(1,0)	(1,0)	
L1D -37>	(38,1)	(37,1)	(-1,1)	(9,72)	(39,2)	(3,1)	(0,1)	(2,1)	(1,0)	(1,0)	(1,0)	(1,0)	(1,0)	(1,0)	(1,0)	(1,0)	
L1D -36>	(74,1)	(-1,1)	(8,40)	(-8,4)	(0,10)	(14,2)	(36,2)	(2,2)	(6,3)	(1,0)	(1,0)	(1,0)	(1,0)	(1,0)	(1,0)	(1,0)	
L1D -35>	(-7,1)	(14,1)	(183,26)	(37,2)	(0,1)	(1,0)	(1,0)	(1,0)	(1,0)	(1,0)	(1,0)	(1,0)	(1,0)	(1,0)	(1,0)	(1,0)	
L1D -34>	(-1,0)	(34,84)	(-7,3)	(6,17)	(-3,0)	(31,2)	(36,0)	(0,0)	(183,2)	(5,0)	(-2,4)	(1,0)	(1,0)	(1,0)	(1,0)	(1,0)	
L1D -33>	(48,2)	(188,10)	(7,4)	(183,38)	(0,3)	(35,2)	(-10,1)	(-3,1)	(5,7)	(1,0)	(1,0)	(1,0)	(1,0)	(1,0)	(1,0)	(1,0)	
L1D -32>	(-9,5)	(32,69)	(-126,0)	(34,52)	(2,9)	(-32,5)	(1,6)	(-20,5)	(-140,0)	(-120,0)	(-170,7)	(0,5)	(4,0)	(-133,0)	(-30,4)	(-31,3)	
L1D -31>	(109,1)	(0,13)	(1,12)	(2,18)	(-2,3)	(82,14)	(9,10)	(33,2)	(15,2)	(4,1)	(3,1)	(1,0)	(1,0)	(1,0)	(1,0)	(1,0)	
L1D -30>	(81,0)	(0,7)	(32,50)	(4,67)	(-12,0)	(2,0)	(1,1)	(31,0)	(3,10)	(-11,2)	(64,6)	(29,0)	(-9,0)	(30,0)	(1,0)	(1,0)	
L1D -29>	(-11,1)	(2,1)	(4,47)	(81,1)	(31,2)	(29,12)	(6,2)	(-1,1)	(1,3)	(28,2)	(10,2)	(-5,4)	(32,1)	(1,0)	(1,0)	(1,0)	
L1D -28>	(44,1)	(-144,1)	(-12,2)	(28,0)	(77,0)	(-147,1)	(0,8)	(-6,113)	(-320,0)	(4,4)	(-148,0)	(-360,4)	(-7,0)	(1,0)	(-141,0)	(-355,6)	
L1D -27>	(25,1)	(30,3)	(-372,1)	(0,21)	(1,8)	(29,3)	(-72,5)	(4,18)	(-12,39)	(5,29)	(-2,42)	(182,4)	(24,2)	(2,3)	(37,2)	(-10,1)	
L1D -26>	(-7,19)	(27,67)	(-93,2)	(0,3)	(23,0)	(-295,0)	(8,2)	(1,0)	(25,0)	(4,1)	(1,0)	(1,0)	(1,0)	(1,0)	(1,0)	(1,0)	
L1D -25>	(0,9)	(-10,1)	(24,12)	(27,54)	(28,5)	(25,5)	(-2,1)	(-8,2)	(23,1)	(1,0)	(1,0)	(1,0)	(1,0)	(1,0)	(1,0)	(1,0)	
L1D -24>	(22,1)	(1,10)	(0,6)	(4,3)	(27,50)	(124,102)	(24,6)	(-2,4)	(6,1)	(23,1)	(28,7)	(2,1)	(1,0)	(1,0)	(1,0)	(1,0)	
L1D -23>	(23,3)	(3,2)	(35,28)	(37,1)	(-7,61)	(27,30)	(5,28)	(25,2)	(79,1)	(2,18)	(124,3)	(1,0)	(1,0)	(1,0)	(1,0)	(1,0)	
L1D -22>	(0,36)	(34,5)	(22,0)	(8,13)	(-1,48)	(4,42)	(23,120)	(30,24)	(2,73)	(-93,7)	(79,3)	(19,1)	(-252,1)	(25,0)	(-8,0)	(13,1)	
L1D -21>	(0,6)	(21,1)	(-1,1)	(-7,13)	(7,3)	(24,1)	(4,122)	(23,32)	(20,1)	(8,0)	(16,1)	(10,0)	(1,1)	(1,0)	(1,0)	(1,0)	
L1D -20>	(1,77)	(0,22)	(-7,10)	(20,94)	(23,55)	(-2,33)	(-8,6)	(140,3)	(-71,48)	(-30,2)	(52,4)	(7,10)	(15,5)	(2,2)	(30,2)	(-1,1)	
L1D -19>	(19,1)	(1,14)	(-8,6)	(2,2)	(4,1)	(8,39)	(23,25)	(18,2)	(20,5)	(6,13)	(12,18)	(21,2)	(7,6)	(14,1)	(0,21)	(1,0)	
L1D -18>	(4,0)	(13,0)	(19,66)	(2,1)	(-1,0)	(0,4)	(3,0)	(-71,2)	(10,0)	(1,4)	(-4,0)	(12,3)	(6,7)	(7,0)	(15,0)	(8,3)	
L1D -17>	(-29,1)	(19,55)	(17,7)	(2,12)	(0,2)	(1,21)	(15,2)	(-15,1)	(-1,4)	(29,4)	(22,1)	(11,1)	(16,1)	(6,1)	(-7,1)	(-2,1)	
L1D -16>	(4,15)	(5,1)	(50,1)	(36,3)	(15,4)	(0,6)	(2,2)	(12,1)	(19,45)	(16,2)	(-1,2)	(1,1)	(-5,1)	(10,1)	(1,0)	(1,0)	
L1D -15>	(6,17)	(-11,6)	(-3,2)	(-2,3)	(2,9)	(119,3)	(-156,3)	(1,9)	(15,5)	(5,2)	(4,2)	(0,6)	(18,3)	(19,19)	(17,2)	(29,1)	
L1D -14>	(415,1)	(-1,95)	(0,9)	(1,20)	(-7,6)	(15,7)	(2,31)	(-40,1)	(5,16)	(-34,2)	(92,1)	(8,3)	(14,5)	(4,1)	(-22,3)	(-27,8)	
L1D -13>	(-1,4)	(-7,1)	(3,5)	(2,12)	(0,37)	(-50,3)	(9,1)	(-268,3)	(5,40)	(93,6)	(15,2)	(13,2)	(-8,19)	(12,3)	(14,9)	(-6,1)	
L1D -12>	(2,30)	(1,34)	(4,100)	(-5,14)	(-4,9)	(13,13)	(-27,3)	(0,5)	(-9,3)	(3,3)	(35,1)	(12,55)	(38,45)	(37,9)	(-2,20)	(-3,16)	
L1D -11>	(1,24)	(-39,1)	(-34,50)	(0,15)	(43,20)	(3,63)	(-113,51)	(-1,11)	(2,25)	(6,35)	(4,98)	(-10,84)	(14,12)	(5,4)	(-40,10)	(-114,43)	
L1D -10>	(10,41)	(28,44)	(0,65)	(-4,39)	(1,2)	(2,8)	(11,15)	(-36,2)	(-2,3)	(6,1)	(7,1)	(33,1)	(49,1)	(65,1)	(-1,7)	(3,56)	
L1D -9>	(29,67)	(88,111)	(43,5)	(7,63)	(3,33)	(-1,28)	(5,22)	(9,7)	(0,28)	(15,8)	(-2,95)	(48,12)	(-17,4)	(12,3)	(2,53)	(10,9)	
L1D -8>	(-2,7)	(15,1)	(6,95)	(0,7)	(-392,23)	(1,95)	(97,2)	(2,26)	(-1,4)	(-353,1)	(138,0)	(-4,0)	(75,0)	(33,0)	(129,0)	(-183,0)	
L1D -7>	(1,36)	(16,2)	(100,8)	(13,1)	(9,61)	(14,37)	(34,38)	(30,9)	(8,79)	(6,48)	(37,5)	(7,33)	(10,3)	(5,9)	(-1,1)	(41,122)	
L1D -6>	(-37,1)	(7,8)	(3,2)	(-34,6)	(-2,2)	(-9,4)	(1,18)	(34,20)	(6,116)	(9,1)	(-1,5)	(0,2)	(8,5)	(71,4)	(14,0)	(-3,0)	
L1D -5>	(-11,1)	(125,1)	(5,53)	(7,26)	(1,101)	(-2,32)	(6,68)	(15,1)	(0,4)	(71,2)	(10,0)	(-1,2)	(4,5)	(2,1)	(3,8)	(9,6)	
L1D -4>	(0,17)	(-1,1)	(-2,14)	(11,18)	(1,17)	(348,18)	(6,6)	(2,44)	(4,72)	(-380,3)	(-34,5)	(5,45)	(-5,17)	(14,14)	(8,2)	(-3,3)	
L1D -3>	(4,31)	(5,1)	(3,21)	(8,1)	(1,109)	(0,12)	(-4,13)	(-24,1)	(2,79)	(7,4)	(6,4)	(14,13)	(-2,1)	(98,0)	(-3,0)	(90,1)	
L1D -2>	(8,37)	(0,71)	(1,82)	(3,13)	(-6,6)	(-1,3)	(5,3)	(-3,3)	(6,25)	(-4,14)	(2,39)	(4,39)	(-9,16)	(126,18)	(-33,2)	(48,2)	
L1D -1>	(13,2)	(0,116)	(1,46)	(-4,7)	(-21,19)	(2,7)	(-1,29)	(3,43)	(-3,34)	(4,9)	(-18,1)	(-34,20)	(30,32)	(84,85)	(23,33)	(-6,45)	
L1D 0>	(84,15)	(0,101)	(167,11)	(1,27)	(-503,2)	(2,10)	(-7,2)	(160,2)	(10,1)	(-335,5)	(-84,6)	(20,4)	(190,1)	(97,2)	(7,2)	(4,1)	
L1D 1>	(-14,1)	(0,17)	(-8,4)	(87,1)	(-153,2)	(4,1)	(-335,1)	(1,105)	(-86,1)	(-18,1)	(-1,1)	(6,3)	(167,6)	(123,1)	(-3,7)	(-2,5)	
L1D 2>	(-1,23)	(15,13)	(3,7)	(1,82)	(2,75)	(70,11)	(62,21)	(54,12)	(79,1)	(-5,15)	(78,24)	(0,44)	(-4,27)	(-7,17)	(-2,37)	(20,20)	
L1D 3>	(20,9)	(3,7)	(2,26)	(-3,48)	(-133,12)	(4,25)	(0,75)	(-2,18)	(-1,10)	(1,43)	(6,13)	(-30,11)	(-18,7)	(157,2)	(-8,1)	(-4,8)	
L1D 4>	(-3,56)	(-1,51)	(0,33)	(-4,89)	(16,8)	(-5,54)	(2,46)	(8,115)	(-80,79)	(5,5)	(4,35)	(-69,22)	(-64,78)	(1,92)	(6,25)	(-40,1)	
L1D 5>	(15,14)	(81,19)	(-6,1)	(13,3)	(3,7)	(8,25)	(-4,37)	(-7,3)	(-5,14)	(1,79)	(-2,6)	(10,26)	(2,8)	(-89,3)	(-51,21)	(34,2)	
L1D 6>	(-4,5)	(-5,6)	(6,3)	(15,1)	(-384,3)	(0,7)	(3,4)	(-6,74)	(-27,1)	(2,4)	(1,16)	(8,4)	(43,3)	(28,36)	(4,3)	(-30,1)	
L1D 7>	(-89,1)	(-7,104)	(0,4)	(-10,50)	(-6,29)	(-3,3)	(-8,35)	(8,45)	(-5,19)	(10,38)	(-22,42)	(93,33)	(-4,27)	(-92,48)	(-18,4)	(15,14)	
L1D 8>	(-2,1)	(-89,3)	(-92,2)	(-276,3)	(8,114)	(4,5)	(28,8)	(-274,12)	(9,7)	(1,2)	(192,13)	(7,4)	(-8,5)	(-22,3)	(-6,15)	(-4,4)	
L1D 9>	(-6,106)	(79,35)	(88,5)	(71,4)	(-21,1)	(69,4)	(70,2)	(64,3)	(-73,3)	(68,3)	(0,11)	(28,3)	(65,4)	(67,7)	(-77,2)	(66,5)	
L1D 10>	(-12,18)	(-10,112)	(71,4)	(64,6)	(20,1)	(0,93)	(66,10)	(69,10)	(-75,9)	(67,8)	(70,13)	(68,9)	(-81,4)	(65,9)	(-79,8)	(63,6)	
L1D 11>	(-10,17)	(-5,90)	(-75,10)	(64,8)	(-81,10)	(-11,15)	(65,10)	(66,6)	(-12,29)	(41,12)	(-125,4)	(-73,5)	(62,16)	(67,7)	(63,5)	(68,6)	
L1D 12>	(-11,96)	(-76,5)	(-75,10)	(23,1)	(68,9)	(64,9)	(62,10)	(67,9)	(69,4)	(-79,8)	(65,7)	(66,6)	(63,10)	(61,6)	(-77,5)	(-81,6)	
L1D 13>	(-76,12)	(63,13)	(62,9)	(-79,11)	(4,3)	(66,6)	(-75,5)	(60,8)	(-2,34)	(67,12)	(-7,23)	(61,6)	(28,5)	(65,8)	(1,54)	(-81,11)	
L1D 14>	(-12,52)	(59,5)	(61,4)	(64,4)	(65,3)	(66,3)	(-77,4)	(0,11)	(-27,2)	(62,4)	(-75,3)	(-9,35)	(-76,2)	(-26,7)	(60,6)	(-10,110)	
L1D 15>	(1,74)	(-1,1)	(69,1)	(4,16)	(8,1)	(64,1)	(2,4)	(-15,2)	(61,0)	(58,0)	(0,0)	(5,1)	(-75,0)	(-10,0)	(-79,0)	(3,14)	
L1D 16>	(-8,1)	(58,8)	(64,11)	(63,8)	(62,10)	(-79,15)	(0,36)	(60,7)	(-76,5)	(-74,5)	(-73,7)	(61,7)	(-13,16)	(-11,89)	(1,97)	(-81,5)	
L1D 17>	(133,6)	(56,10)	(57,9)	(-74,8)	(-79,9)	(61,4)	(62,7)	(-81,9)	(60,7)	(0,86)	(-73,12)	(63,7)	(-76,6)	(59,4)	(58,7)	(-95,56)	
L1D 18>	(59,9)	(62,7)	(57,10)	(-89,1)	(-81,13)	(58,5)	(55,3)	(61,8)	(56,8)	(-79,11)	(0,20)	(32,3)	(-73,5)	(-77,5)	(10,2)	(63,2)	
L1D 19>	(-19,13)	(-75,1)	(-125,30)	(20,6)	(61,1)	(-79,1)	(54,1)	(58,1)	(-73,1)	(-18,5)	(3,17)	(0,1)	(60,1)	(1,107)	(2,53)	(55,0)	
L1D 20>	(54,6)	(-50,1)	(58,9)	(-79,13)	(-76,5)	(154,28)	(-74,5)	(142,86)	(59,4)	(138,92)	(61,4)	(56,8)	(55,7)	(-73,6)	(53,6)	(-81,7)	
L1D 21>	(54,5)	(140,1)	(-73,9)	(59,6)	(56,5)	(51,4)	(-76,4)	(57,4)	(53,11)	(58,6)	(55,10)	(128,15)	(156,6)	(-79,10)	(52,6)	(144,5)	
L1D 22>	(-74,9)	(0,4)	(55,12)	(-79,13)	(-77,8)	(54,9)	(53,10)	(52,11)	(58,6)	(56,8)	(-81,11)	(51,5)	(57,9)	(60,5)	(59,3)	(-73,6)	
L1D 23>	(2,15)	(57,1)	(-23,3)	(-20,5)	(-29,3)	(-116,31)	(50,1)	(79,2)	(55,1)	(56,1)	(0,1)	(3,27)	(4,29)	(1,120)	(-81,1)	(229,1)	
L1D 24>	(-73,4)	(-24,1)	(52,10)	(49,7)	(-74,10)	(53,3)	(-75,3)	(54,9)	(-81,8)	(51,9)	(0,9)	(50,11)	(-76,3)	(56,8)	(55,7)	(4,16)	
L1D 25>	(49,6)	(-81,4)	(54,3)	(-77,5)	(-75,10)	(-76,6)	(-73,4)	(51,6)	(55,12)	(53,8)	(52,8)	(50,8)	(-79,8)	(-74,10)	(-25,1)	(48,2)	
L1D 26>	(48,8)	(52,6)	(54,6)	(1,17)	(53,8)	(-76,9)	(50,5)	(-73,11)	(-75,10)	(-79,10)	(-74,8)	(51,10)	(47,5)	(-81,8)	(-26,1)	(-77,4)	
L1D 27>	(-75,1)	(-81,0)	(52,0)	(-27,7)	(50,0)	(48,1)	(1,112)	(46,0)	(53,0)	(-74,0)	(47,1)	(0,1)	(-26,0)	(3,25)	(51,0)	(2,20)	
L1D 28>	(0,0)	(-34,67)	(-40,0)	(-28,0)	(1,5)	(-175,0)	(45,0)	(51,0)	(-73,0)	(46,0)	(8,0)	(48,0)	(-79,0)	(-81,0)	(52,0)	(47,0)	
L1D 29>	(-36,5)	(50,7)	(44,7)	(-75,9)	(79,35)	(52,4)	(-1,1)	(-73,5)	(-79,6)	(49,8)	(47,4)	(48,4)	(45,7)	(51,4)	(46,9)	(-74,5)	
L1D 30>	(-75,8)	(-76,8)	(-73,5)	(50,6)	(-77,9)	(-79,10)	(354,33)	(-80,10)	(44,6)	(0,12)	(-29,1)	(-74,7)	(46,4)	(8,14)	(45,8)	(43,5)	
L1D 31>	(47,14)	(46,7)	(44,16)	(-74,10)	(-76,12)	(43,8)	(-80,7)	(4,3)	(45,8)	(-75,6)	(48,9)	(49,7)	(-79,8)	(42,6)	(93,60)	(50,4)	
L1D 32>	(0,2)	(-158,6)	(-32,84)	(-64,4)	(75,0)	(-62,0)	(32,0)	(17,1)	(-161,0)	(-63,1)	(-30,15)	(-39,1)	(-43,0)	(16,3)	(2,2)	(51,7)	
L1D 33>	(-76,7)	(44,8)	(18,5)	(-80,9)	(40,6)	(47,6)	(20,89)	(42,5)	(46,7)	(19,6)	(-77,6)	(43,6)	(17,24)	(45,8)	(-74,9)	(-79,9)	
L1D 34>	(3,6)	(-36,1)	(-64,0)	(2,0)	(-8,24)	(-28,83)	(-33,0)	(7,0)	(-27,0)	(4,0)	(-75,0)	(-32,42)	(-37,3)	(0,1)	(155,6)	(-20,0)	
L1D 35>	(38,4)	(39,7)	(44,4)	(42,6)	(46,6)	(45,6)	(41,4)	(-79,7)	(-74,3)	(-75,6)	(-80,10)	(-73,13)	(8,25)	(40,4)	(-76,8)	(4,1)	
L1D 36>	(41,5)	(-74,12)	(45,6)	(42,4)	(-76,9)	(-79,8)	(-80,11)	(-77,4)	(40,5)	(37,7)	(39,8)	(-75,5)	(44,8)	(43,4)	(4,1)	(-73,4)	
L1D 37>	(39,8)	(-25,5)	(42,8)	(40,5)	(-74,25)	(38,6)	(-73,9)	(43,8)	(-26,18)	(-79,11)	(41,6)	(36,5)	(-80,9)	(4,15)	(20,15)	(37,6)	
L1D 38>	(-74,12)	(-80,6)	(-79,10)	(-50,39)	(40,6)	(-77,6)	(322,2)	(38,5)	(37,9)	(39,7)	(42,7)	(41,6)	(35,8)	(-26,73)	(-73,12)	(43,4)	
L1D 39>	(-74,16)	(-76,11)	(-73,11)	(41,8)	(-32,1)	(37,7)	(36,8)	(34,5)	(35,7)	(-80,3)	(42,5)	(-79,8)	(39,4)	(-77,4)	(40,3)	(-39,2)	
L1D 40>	(0,1)	(37,8)	(-79,9)	(39,6)	(41,4)	(-80,10)	(-77,4)	(36,8)	(-73,13)	(38,5)	(32,2)	(-74,8)	(-76,10)	(35,4)	(34,5)	(40,9)	
L1D 41>	(-79,1)	(-34,65)	(8,2)	(35,1)	(32,43)	(-74,2)	(38,1)	(-8,7)	(-41,1)	(113,3)	(-80,1)	(33,0)	(34,1)	(40,0)	(-28,2)	(39,0)	
L1D 42>	(-79,10)	(-77,8)	(-80,3)	(34,9)	(-73,8)	(-76,8)	(2,3)	(-74,16)	(38,9)	(37,6)	(35,4)	(33,9)	(36,6)	(31,4)	(-83,3)	(-39,1)	
L1D 43>	(37,7)	(-77,7)	(36,11)	(31,7)	(-73,8)	(-76,7)	(30,6)	(32,4)	(-74,13)	(34,5)	(-80,6)	(2,1)	(35,4)	(33,6)	(-43,22)	(-79,8)	
L1D 44>	(-76,12)	(34,4)	(36,4)	(30,12)	(-74,17)	(-78,3)	(31,8)	(-80,6)	(-8,15)	(33,7)	(32,3)	(29,4)	(35,6)	(-73,14)	(-79,6)	(-77,5)	
L1D 45>	(31,10)	(-73,15)	(-74,14)	(33,4)	(-80,10)	(-78,8)	(-76,6)	(-79,7)	(34,8)	(29,4)	(30,3)	(28,4)	(1,1)	(32,6)	(35,7)	(36,3)	
L1D 46>	(-73,5)	(27,4)	(-74,22)	(8,1)	(-78,5)	(-48,91)	(30,6)	(33,4)	(31,5)	(29,6)	(-76,10)	(34,7)	(-79,9)	(-77,5)	(-80,6)	(32,4)	
L1D 47>	(-76,9)	(-79,4)	(30,5)	(-74,17)	(-78,5)	(-80,10)	(26,7)	(27,6)	(31,3)	(33,6)	(-77,4)	(2,1)	(-47,2)	(28,5)	(-73,10)	(34,3)	
L1D 48>	(-76,13)	(30,6)	(-46,14)	(-78,5)	(-48,1)	(-74,12)	(-80,16)	(33,5)	(25,8)	(32,7)	(26,13)	(-32,14)	(-77,6)	(-79,4)	(31,3)	(0,6)	
L1D 49>	(-78,5)	(-74,12)	(29,5)	(-77,3)	(-80,14)	(-76,5)	(-79,4)	(25,4)	(30,4)	(1,1)	(26,9)	(31,3)	(28,6)	(27,5)	(-41,18)	(32,3)	
L1D 50>	(-79,9)	(27,4)	(23,3)	(-76,15)	(-80,15)	(-77,3)	(25,8)	(26,6)	(-32,14)	(-74,23)	(30,6)	(31,5)	(-83,3)	(-78,2)	(29,3)	(2,2)	
L1D 51>	(-76,10)	(-80,16)	(-79,6)	(24,4)	(26,5)	(25,7)	(-51,14)	(-74,22)	(-77,6)	(15,1)	(29,5)	(30,3)	(28,4)	(-41,4)	(22,3)	(0,117)	
L1D 52>	(-78,5)	(4,26)	(21,5)	(-32,15)	(-6,109)	(-80,19)	(-74,14)	(-76,14)	(30,6)	(26,7)	(23,6)	(0,1)	(25,5)	(22,8)	(24,4)	(-79,4)	
L1D 53>	(22,9)	(-74,21)	(-76,9)	(1,1)	(24,5)	(-79,8)	(28,7)	(-80,17)	(20,4)	(27,4)	(21,5)	(26,3)	(-78,4)	(23,4)	(-77,6)	(25,4)	
L1D 54>	(-74,18)	(-75,12)	(4,79)	(22,4)	(-80,18)	(19,5)	(-79,6)	(0,53)	(-50,1)	(25,3)	(23,6)	(20,10)	(-76,4)	(27,2)	(26,5)	(-77,3)	
L1D 55>	(-80,22)	(22,8)	(-74,21)	(21,6)	(26,4)	(0,111)	(-78,4)	(-79,3)	(-76,8)	(20,6)	(25,4)	(19,6)	(-77,5)	(24,4)	(-75,7)	(-55,2)	
L1D 56>	(-76,0)	(22,0)	(-74,2)	(2,0)	(17,0)	(18,0)	(-78,0)	(-80,2)	(19,0)	(-56,2)	(-77,0)	(0,3)	(-75,1)	(4,98)	(-79,0)	(24,0)	
L1D 57>	(1,1)	(-80,17)	(-77,11)	(-75,7)	(23,2)	(19,5)	(-74,15)	(-78,3)	(20,3)	(24,3)	(-57,2)	(21,3)	(22,4)	(17,5)	(-79,11)	(18,5)	
L1D 58>	(-74,23)	(19,6)	(-75,10)	(22,7)	(-78,6)	(20,3)	(-80,16)	(23,5)	(4,23)	(-58,8)	(18,4)	(-76,5)	(16,3)	(-56,1)	(-77,4)	(17,8)	
L1D 59>	(-74,13)	(-76,4)	(-78,6)	(-80,15)	(15,6)	(17,6)	(-75,11)	(16,6)	(20,6)	(18,8)	(19,3)	(-59,2)	(22,5)	(21,5)	(-77,2)	(0,1)	
L1D 60>	(-60,2)	(-74,0)	(-58,1)	(-80,0)	(-59,0)	(-148,0)	(-77,0)	(-75,0)	(16,0)	(-78,0)	(18,0)	(15,0)	(4,97)	(0,2)	(21,0)	(20,0)	
L1D 61>	(-74,24)	(18,5)	(-75,6)	(13,8)	(-80,18)	(-76,3)	(19,7)	(-78,11)	(1,1)	(12,2)	(15,3)	(20,4)	(16,4)	(14,5)	(-77,7)	(17,3)	
L1D 62>	(-78,3)	(-80,4)	(-76,2)	(-32,0)	(18,1)	(-77,0)	(-74,6)	(14,0)	(12,1)	(4,92)	(13,0)	(17,1)	(15,1)	(11,0)	(0,8)	(-75,0)	
L1D 63>	(-77,4)	(15,4)	(11,4)	(-13,6)	(2,1)	(-74,15)	(0,6)	(-80,16)	(-76,8)	(13,5)	(-75,7)	(17,4)	(-78,8)	(16,9)	(12,3)	(14,4)	
L1D 64>	(-75,3)	(12,3)	(-80,13)	(-63,1)	(-78,3)	(-74,3)	(-73,9)	(-32,14)	(13,3)	(16,2)	(-64,3)	(15,4)	(0,3)	(17,2)	(-62,5)	(4,79)	
L1D 65>	(0,10)	(10,5)	(12,6)	(11,4)	(-78,6)	(-76,4)	(-75,14)	(13,6)	(-80,14)	(9,5)	(-74,5)	(-77,11)	(14,4)	(15,6)	(-73,8)	(-61,1)	
L1D 66>	(4,21)	(-80,25)	(-76,10)	(-74,11)	(13,3)	(-78,13)	(-73,7)	(12,6)	(-75,8)	(0,1)	(11,3)	(15,2)	(-83,4)	(-77,3)	(-64,6)	(14,2)	
L1D 67>	(-67,2)	(11,3)	(-73,15)	(-74,19)	(-78,10)	(-77,8)	(14,4)	(12,5)	(-80,18)	(19,1)	(-75,16)	(13,6)	(-76,2)	(9,4)	(10,3)	(-66,2)	
L1D 68>	(-73,0)	(-75,0)	(-80,0)	(-74,0)	(-66,0)	(12,0)	(10,0)	(-76,0)	(-78,0)	(13,0)	(4,75)	(-68,1)	(-77,0)	(0,1)	(-83,0)	(-64,0)	
L1D 69>	(-75,14)	(-74,10)	(9,2)	(-78,9)	(-80,19)	(-76,2)	(11,7)	(12,2)	(-82,2)	(-77,3)	(-69,2)	(-68,5)	(-73,9)	(10,2)	(-65,1)	(1,3)	
L1D 70>	(-74,13)	(-75,13)	(-80,22)	(4,88)	(-73,8)	(-76,3)	(10,4)	(-81,1)	(-83,5)	(-78,6)	(-77,3)	(11,3)	(7,1)	(-69,7)	(-70,9)	(0,46)	
L1D 71>	(-71,4)	(-74,15)	(-80,15)	(-65,2)	(-73,13)	(-83,2)	(-78,8)	(-75,6)	(-76,2)	(12,1)	(-82,1)	(9,2)	(10,3)	(7,1)	(-66,2)	(19,88)	
L1D 72>	(-78,0)	(-73,1)	(-80,1)	(0,0)	(-76,0)	(-81,0)	(-83,0)	(4,108)	(-70,2)	(-72,2)	(1,0)	(1,0)	(1,0)	(1,0)	(1,0)	(1,0)	
L1D 73>	(-78,16)	(-79,13)	(-61,1)	(-83,1)	(-76,3)	(-32,3)	(1,3)	(51,3)	(-73,2)	(1,0)	(1,0)	(1,0)	(1,0)	(1,0)	(1,0)	(1,0)	
L1D 74>	(-47,1)	(-76,3)	(-78,13)	(-74,4)	(-72,7)	(4,19)	(2,1)	(-83,1)	(1,0)	(1,0)	(1,0)	(1,0)	(1,0)	(1,0)	(1,0)	(1,0)	
L1D 75>	(-78,15)	(-83,2)	(-54,1)	(-41,1)	(-45,1)	(-15,1)	(-76,1)	(-23,1)	(-63,1)	(0,1)	(-25,1)	(-75,4)	(-79,2)	(1,2)	(43,2)	(-1,2)	
L1D 76>	(4,96)	(-74,0)	(8,0)	(-57,0)	(-19,0)	(-37,0)	(-82,0)	(-76,1)	(0,1)	(-71,9)	(18,0)	(20,0)	(175,0)	(1,0)	(1,0)	(1,0)	
L1D 77>	(-80,1)	(-27,1)	(1,3)	(-77,2)	(14,2)	(-41,1)	(1,0)	(1,0)	(1,0)	(1,0)	(1,0)	(1,0)	(1,0)	(1,0)	(1,0)	(1,0)	
L1D 78>	(-78,2)	(-41,0)	(4,118)	(-76,4)	(1,1)	(0,5)	(1,0)	(1,0)	(1,0)	(1,0)	(1,0)	(1,0)	(1,0)	(1,0)	(1,0)	(1,0)	
L1D 79>	(9,87)	(-435,1)	(-83,2)	(-52,1)	(17,99)	(174,2)	(166,2)	(-49,7)	(178,1)	(162,1)	(0,1)	(-79,1)	(-76,2)	(-72,1)	(-86,8)	(-78,30)	
L1D 80>	(-76,2)	(-78,6)	(4,69)	(-80,4)	(-93,36)	(0,0)	(-73,0)	(1,0)	(1,0)	(1,0)	(1,0)	(1,0)	(1,0)	(1,0)	(1,0)	(1,0)	
L1D 81>	(3,2)	(-57,1)	(-28,1)	(-86,104)	(-81,2)	(1,0)	(1,0)	(1,0)	(1,0)	(1,0)	(1,0)	(1,0)	(1,0)	(1,0)	(1,0)	(1,0)	
L1D 82>	(-78,2)	(1,94)	(4,21)	(-80,8)	(-82,2)	(0,1)	(1,0)	(1,0)	(1,0)	(1,0)	(1,0)	(1,0)	(1,0)	(1,0)	(1,0)	(1,0)	
L1D 83>	(-54,0)	(0,86)	(84,38)	(-84,52)	(-83,4)	(1,13)	(-419,0)	(-503,0)	(1,0)	(1,0)	(1,0)	(1,0)	(1,0)	(1,0)	(1,0)	(1,0)	
L1D 84>	(-503,3)	(84,21)	(0,30)	(-84,111)	(-1,0)	(168,0)	(-83,9)	(-335,0)	(4,5)	(-419,0)	(-69,0)	(1,2)	(83,0)	(1,0)	(1,0)	(1,0)	
L1D 85>	(-6,1)	(-1,88)	(83,53)	(-421,1)	(1,1)	(-420,6)	(-504,5)	(-85,2)	(-43,1)	(-84,7)	(1,0)	(1,0)	(1,0)	(1,0)	(1,0)	(1,0)	
L1D 86>	(-99,4)	(-175,3)	(-15,3)	(-84,15)	(-27,5)	(-86,3)	(-92,1)	(7,2)	(-246,1)	(0,4)	(-62,1)	(1,0)	(1,0)	(1,0)	(1,0)	(1,0)	
L1D 87>	(1,21)	(2,3)	(-243,1)	(-251,1)	(-90,11)	(-84,12)	(-239,1)	(0,5)	(-230,1)	(-229,1)	(-87,2)	(-204,1)	(-199,1)	(-195,1)	(-188,1)	(-187,1)	
L1D 88>	(-9,92)	(9,99)	(-86,13)	(88,3)	(-226,1)	(79,1)	(-254,2)	(-253,2)	(-252,2)	(1,12)	(-248,2)	(-247,2)	(-246,2)	(-245,2)	(-244,2)	(-243,1)	
L1D 89>	(-18,1)	(0,10)	(-84,49)	(-69,3)	(-97,2)	(-89,2)	(1,0)	(1,0)	(1,0)	(1,0)	(1,0)	(1,0)	(1,0)	(1,0)	(1,0)	(1,0)	
L1D 90>	(2,2)	(-88,24)	(0,4)	(4,14)	(-84,11)	(1,0)	(1,0)	(1,0)	(1,0)	(1,0)	(1,0)	(1,0)	(1,0)	(1,0)	(1,0)	(1,0)	
L1D 91>	(-89,13)	(4,18)	(-90,1)	(-91,2)	(1,1)	(1,0)	(1,0)	(1,0)	(1,0)	(1,0)	(1,0)	(1,0)	(1,0)	(1,0)	(1,0)	(1,0)	
L1D 92>	(88,1)	(-92,94)	(0,3)	(-90,2)	(4,0)	(8,0)	(-88,1)	(1,0)	(1,0)	(1,0)	(1,0)	(1,0)	(1,0)	(1,0)	(1,0)	(1,0)	
L1D 93>	(-93,120)	(4,13)	(0,31)	(-91,13)	(-83,90)	(-112,110)	(-89,8)	(8,1)	(88,1)	(1,0)	(1,0)	(1,0)	(1,0)	(1,0)	(1,0)	(1,0)	
L1D 94>	(-94,118)	(-92,4)	(4,17)	(-18,7)	(1,0)	(1,0)	(1,0)	(1,0)	(1,0)	(1,0)	(1,0)	(1,0)	(1,0)	(1,0)	(1,0)	(1,0)	
L1D 95>	(-95,93)	(4,30)	(-93,6)	(-94,61)	(0,6)	(-96,10)	(-97,29)	(-101,2)	(88,1)	(1,0)	(1,0)	(1,0)	(1,0)	(1,0)	(1,0)	(1,0)	
L1D 96>	(-94,73)	(-96,97)	(-2,0)	(-20,28)	(-100,4)	(-92,11)	(-97,1)	(4,3)	(8,2)	(0,1)	(88,1)	(1,0)	(1,0)	(1,0)	(1,0)	(1,0)	
L1D 97>	(88,1)	(-89,1)	(-101,5)	(-97,125)	(-93,7)	(-95,64)	(0,82)	(-1,43)	(2,31)	(-96,0)	(4,3)	(8,0)	(1,0)	(1,0)	(1,0)	(1,0)	
L1D 98>	(-96,86)	(-98,62)	(4,17)	(0,1)	(-97,20)	(1,0)	(1,0)	(1,0)	(1,0)	(1,0)	(1,0)	(1,0)	(1,0)	(1,0)	(1,0)	(1,0)	
L1D 99>	(-97,103)	(-99,89)	(4,36)	(-2,3)	(0,6)	(1,1)	(1,0)	(1,0)	(1,0)	(1,0)	(1,0)	(1,0)	(1,0)	(1,0)	(1,0)	(1,0)	
L1D 100>	(-3,109)	(-98,118)	(4,6)	(-100,102)	(-96,6)	(-83,14)	(0,21)	(-104,2)	(-101,2)	(-112,2)	(1,1)	(88,1)	(1,0)	(1,0)	(1,0)	(1,0)	
L1D 101>	(-103,1)	(-1,1)	(-99,114)	(-101,113)	(4,10)	(0,16)	(-97,7)	(1,1)	(1,0)	(1,0)	(1,0)	(1,0)	(1,0)	(1,0)	(1,0)	(1,0)	
L1D 102>	(-100,83)	(-102,76)	(4,53)	(0,8)	(-22,1)	(-108,3)	(1,0)	(1,0)	(1,0)	(1,0)	(1,0)	(1,0)	(1,0)	(1,0)	(1,0)	(1,0)	
L1D 103>	(4,42)	(-150,1)	(-101,79)	(-103,72)	(0,10)	(-281,1)	(1,1)	(1,0)	(1,0)	(1,0)	(1,0)	(1,0)	(1,0)	(1,0)	(1,0)	(1,0)	
L1D 104>	(-102,67)	(63,2)	(-104,108)	(-108,19)	(-22,22)	(0,2)	(4,1)	(-276,2)	(88,1)	(1,1)	(1,0)	(1,0)	(1,0)	(1,0)	(1,0)	(1,0)	
L1D 105>	(-103,74)	(-105,104)	(-109,18)	(0,2)	(-281,17)	(4,2)	(-278,1)	(1,1)	(1,0)	(1,0)	(1,0)	(1,0)	(1,0)	(1,0)	(1,0)	(1,0)	
L1D 106>	(-26,10)	(-119,3)	(-104,57)	(-106,21)	(-120,2)	(-28,3)	(1,1)	(1,0)	(1,0)	(1,0)	(1,0)	(1,0)	(1,0)	(1,0)	(1,0)	(1,0)	
L1D 107>	(-121,6)	(-285,10)	(-105,67)	(-107,12)	(-122,2)	(88,1)	(1,0)	(1,0)	(1,0)	(1,0)	(1,0)	(1,0)	(1,0)	(1,0)	(1,0)	(1,0)	
L1D 108>	(-106,96)	(1,1)	(1,0)	(1,0)	(1,0)	(1,0)	(1,0)	(1,0)	(1,0)	(1,0)	(1,0)	(1,0)	(1,0)	(1,0)	(1,0)	(1,0)	
L1D 109>	(40,1)	(-107,94)	(-109,1)	(1,1)	(1,0)	(1,0)	(1,0)	(1,0)	(1,0)	(1,0)	(1,0)	(1,0)	(1,0)	(1,0)	(1,0)	(1,0)	
L1D 110>	(1,0)	(1,0)	(1,0)	(1,0)	(1,0)	(1,0)	(1,0)	(1,0)	(1,0)	(1,0)	(1,0)	(1,0)	(1,0)	(1,0)	(1,0)	(1,0)	
L1D 111>	(-113,1)	(-111,1)	(88,1)	(0,1)	(1,0)	(1,0)	(1,0)	(1,0)	(1,0)	(1,0)	(1,0)	(1,0)	(1,0)	(1,0)	(1,0)	(1,0)	
L1D 112>	(-112,1)	(88,2)	(1,0)	(1,0)	(1,0)	(1,0)	(1,0)	(1,0)	(1,0)	(1,0)	(1,0)	(1,0)	(1,0)	(1,0)	(1,0)	(1,0)	
L1D 113>	(-114,10)	(-113,1)	(1,1)	(1,0)	(1,0)	(1,0)	(1,0)	(1,0)	(1,0)	(1,0)	(1,0)	(1,0)	(1,0)	(1,0)	(1,0)	(1,0)	
L1D 114>	(0,1)	(-113,51)	(1,0)	(1,0)	(1,0)	(1,0)	(1,0)	(1,0)	(1,0)	(1,0)	(1,0)	(1,0)	(1,0)	(1,0)	(1,0)	(1,0)	
L1D 115>	(1,1)	(-115,1)	(1,0)	(1,0)	(1,0)	(1,0)	(1,0)	(1,0)	(1,0)	(1,0)	(1,0)	(1,0)	(1,0)	(1,0)	(1,0)	(1,0)	
L1D 116>	(1,7)	(88,1)	(1,0)	(1,0)	(1,0)	(1,0)	(1,0)	(1,0)	(1,0)	(1,0)	(1,0)	(1,0)	(1,0)	(1,0)	(1,0)	(1,0)	
L1D 117>	(88,2)	(0,1)	(-204,2)	(1,0)	(1,0)	(1,0)	(1,0)	(1,0)	(1,0)	(1,0)	(1,0)	(1,0)	(1,0)	(1,0)	(1,0)	(1,0)	
L1D 118>	(1,0)	(1,0)	(1,0)	(1,0)	(1,0)	(1,0)	(1,0)	(1,0)	(1,0)	(1,0)	(1,0)	(1,0)	(1,0)	(1,0)	(1,0)	(1,0)	
L1D 119>	(-113,1)	(-119,1)	(-121,2)	(1,0)	(1,0)	(1,0)	(1,0)	(1,0)	(1,0)	(1,0)	(1,0)	(1,0)	(1,0)	(1,0)	(1,0)	(1,0)	
L1D 120>	(4,111)	(6,3)	(88,2)	(1,0)	(1,0)	(1,0)	(1,0)	(1,0)	(1,0)	(1,0)	(1,0)	(1,0)	(1,0)	(1,0)	(1,0)	(1,0)	
L1D 121>	(0,4)	(-126,1)	(88,1)	(-121,1)	(3,1)	(1,0)	(1,0)	(1,0)	(1,0)	(1,0)	(1,0)	(1,0)	(1,0)	(1,0)	(1,0)	(1,0)	
L1D 122>	(0,4)	(88,1)	(3,2)	(1,9)	(2,5)	(-130,1)	(1,0)	(1,0)	(1,0)	(1,0)	(1,0)	(1,0)	(1,0)	(1,0)	(1,0)	(1,0)	
L1D 123>	(0,30)	(4,4)	(1,3)	(2,2)	(-126,2)	(-123,1)	(1,0)	(1,0)	(1,0)	(1,0)	(1,0)	(1,0)	(1,0)	(1,0)	(1,0)	(1,0)	
L1D 124>	(-132,1)	(-126,108)	(0,83)	(88,1)	(1,0)	(1,0)	(1,0)	(1,0)	(1,0)	(1,0)	(1,0)	(1,0)	(1,0)	(1,0)	(1,0)	(1,0)	
L1D 125>	(-11,45)	(88,1)	(-125,1)	(0,1)	(1,0)	(1,0)	(1,0)	(1,0)	(1,0)	(1,0)	(1,0)	(1,0)	(1,0)	(1,0)	(1,0)	(1,0)	
L1D 126>	(0,2)	(2,4)	(56,104)	(4,2)	(1,0)	(1,0)	(1,0)	(1,0)	(1,0)	(1,0)	(1,0)	(1,0)	(1,0)	(1,0)	(1,0)	(1,0)	
L1D 127>	(88,2)	(-127,1)	(1,0)	(1,0)	(1,0)	(1,0)	(1,0)	(1,0)	(1,0)	(1,0)	(1,0)	(1,0)	(1,0)	(1,0)	(1,0)	(1,0)	
L1D 128>	(-188,1)	(154,1)	(-57,1)	(-176,13)	(-149,3)	(88,1)	(1,0)	(1,0)	(1,0)	(1,0)	(1,0)	(1,0)	(1,0)	(1,0)	(1,0)	(1,0)	
L1D 129>	(0,2)	(4,1)	(88,1)	(2,1)	(1,2)	(-129,1)	(1,0)	(1,0)	(1,0)	(1,0)	(1,0)	(1,0)	(1,0)	(1,0)	(1,0)	(1,0)	
L1D 130>	(1,68)	(2,12)	(-130,1)	(3,15)	(-132,0)	(0,0)	(-176,0)	(1,0)	(1,0)	(1,0)	(1,0)	(1,0)	(1,0)	(1,0)	(1,0)	(1,0)	
L1D 131>	(88,1)	(1,1)	(17,2)	(-131,1)	(1,0)	(1,0)	(1,0)	(1,0)	(1,0)	(1,0)	(1,0)	(1,0)	(1,0)	(1,0)	(1,0)	(1,0)	
L1D 132>	(88,2)	(1,1)	(1,0)	(1,0)	(1,0)	(1,0)	(1,0)	(1,0)	(1,0)	(1,0)	(1,0)	(1,0)	(1,0)	(1,0)	(1,0)	(1,0)	
L1D 133>	(-133,2)	(-171,1)	(8,9)	(12,1)	(1,0)	(1,0)	(1,0)	(1,0)	(1,0)	(1,0)	(1,0)	(1,0)	(1,0)	(1,0)	(1,0)	(1,0)	
L1D 134>	(1,0)	(1,0)	(1,0)	(1,0)	(1,0)	(1,0)	(1,0)	(1,0)	(1,0)	(1,0)	(1,0)	(1,0)	(1,0)	(1,0)	(1,0)	(1,0)	
L1D 135>	(88,1)	(0,1)	(1,0)	(1,0)	(1,0)	(1,0)	(1,0)	(1,0)	(1,0)	(1,0)	(1,0)	(1,0)	(1,0)	(1,0)	(1,0)	(1,0)	
L1D 136>	(88,2)	(-184,3)	(1,0)	(1,0)	(1,0)	(1,0)	(1,0)	(1,0)	(1,0)	(1,0)	(1,0)	(1,0)	(1,0)	(1,0)	(1,0)	(1,0)	
L1D 137>	(88,1)	(-117,1)	(-137,1)	(1,0)	(1,0)	(1,0)	(1,0)	(1,0)	(1,0)	(1,0)	(1,0)	(1,0)	(1,0)	(1,0)	(1,0)	(1,0)	
L1D 138>	(1,119)	(2,17)	(3,28)	(-138,7)	(-184,0)	(-158,2)	(1,0)	(1,0)	(1,0)	(1,0)	(1,0)	(1,0)	(1,0)	(1,0)	(1,0)	(1,0)	
L1D 139>	(-177,1)	(-207,20)	(148,14)	(88,2)	(1,2)	(-139,1)	(-6,1)	(1,0)	(1,0)	(1,0)	(1,0)	(1,0)	(1,0)	(1,0)	(1,0)	(1,0)	
L1D 140>	(-135,1)	(-120,6)	(-188,7)	(88,3)	(-161,1)	(1,0)	(1,0)	(1,0)	(1,0)	(1,0)	(1,0)	(1,0)	(1,0)	(1,0)	(1,0)	(1,0)	
L1D 141>	(-19,1)	(-360,1)	(88,1)	(48,1)	(1,0)	(1,0)	(1,0)	(1,0)	(1,0)	(1,0)	(1,0)	(1,0)	(1,0)	(1,0)	(1,0)	(1,0)	
L1D 142>	(1,112)	(2,64)	(1,0)	(1,0)	(1,0)	(1,0)	(1,0)	(1,0)	(1,0)	(1,0)	(1,0)	(1,0)	(1,0)	(1,0)	(1,0)	(1,0)	
L1D 143>	(1,1)	(46,1)	(88,1)	(1,0)	(1,0)	(1,0)	(1,0)	(1,0)	(1,0)	(1,0)	(1,0)	(1,0)	(1,0)	(1,0)	(1,0)	(1,0)	
L1D 144>	(88,3)	(1,1)	(-355,1)	(-165,2)	(-192,3)	(1,0)	(1,0)	(1,0)	(1,0)	(1,0)	(1,0)	(1,0)	(1,0)	(1,0)	(1,0)	(1,0)	
L1D 145>	(1,1)	(4,1)	(88,1)	(1,0)	(1,0)	(1,0)	(1,0)	(1,0)	(1,0)	(1,0)	(1,0)	(1,0)	(1,0)	(1,0)	(1,0)	(1,0)	
L1D 146>	(0,1)	(1,70)	(2,15)	(3,25)	(-146,3)	(88,1)	(1,0)	(1,0)	(1,0)	(1,0)	(1,0)	(1,0)	(1,0)	(1,0)	(1,0)	(1,0)	
L1D 147>	(3,1)	(-88,1)	(-287,1)	(-144,1)	(63,1)	(1,3)	(1,0)	(1,0)	(1,0)	(1,0)	(1,0)	(1,0)	(1,0)	(1,0)	(1,0)	(1,0)	
L1D 148>	(-144,14)	(4,7)	(-196,2)	(1,1)	(88,2)	(-294,1)	(-117,1)	(-355,1)	(1,0)	(1,0)	(1,0)	(1,0)	(1,0)	(1,0)	(1,0)	(1,0)	
L1D 149>	(4,10)	(-149,1)	(88,3)	(-244,1)	(-243,1)	(8,1)	(1,0)	(1,0)	(1,0)	(1,0)	(1,0)	(1,0)	(1,0)	(1,0)	(1,0)	(1,0)	
L1D 150>	(4,2)	(1,85)	(2,44)	(-114,1)	(8,1)	(1,0)	(1,0)	(1,0)	(1,0)	(1,0)	(1,0)	(1,0)	(1,0)	(1,0)	(1,0)	(1,0)	
L1D 151>	(1,5)	(88,2)	(1,0)	(1,0)	(1,0)	(1,0)	(1,0)	(1,0)	(1,0)	(1,0)	(1,0)	(1,0)	(1,0)	(1,0)	(1,0)	(1,0)	
L1D 152>	(-32,18)	(-172,1)	(88,3)	(-200,2)	(1,1)	(1,0)	(1,0)	(1,0)	(1,0)	(1,0)	(1,0)	(1,0)	(1,0)	(1,0)	(1,0)	(1,0)	
L1D 153>	(1,1)	(88,1)	(1,0)	(1,0)	(1,0)	(1,0)	(1,0)	(1,0)	(1,0)	(1,0)	(1,0)	(1,0)	(1,0)	(1,0)	(1,0)	(1,0)	
L1D 154>	(-271,1)	(2,11)	(1,82)	(3,16)	(-154,3)	(-114,34)	(11,13)	(4,3)	(-144,5)	(-148,3)	(1,0)	(1,0)	(1,0)	(1,0)	(1,0)	(1,0)	
L1D 155>	(4,93)	(88,1)	(1,2)	(8,1)	(1,0)	(1,0)	(1,0)	(1,0)	(1,0)	(1,0)	(1,0)	(1,0)	(1,0)	(1,0)	(1,0)	(1,0)	
L1D 156>	(49,1)	(88,4)	(-177,3)	(-204,3)	(1,0)	(1,0)	(1,0)	(1,0)	(1,0)	(1,0)	(1,0)	(1,0)	(1,0)	(1,0)	(1,0)	(1,0)	
L1D 157>	(-251,1)	(160,14)	(88,1)	(1,1)	(1,0)	(1,0)	(1,0)	(1,0)	(1,0)	(1,0)	(1,0)	(1,0)	(1,0)	(1,0)	(1,0)	(1,0)	
L1D 158>	(1,43)	(2,22)	(-201,1)	(160,10)	(8,1)	(1,0)	(1,0)	(1,0)	(1,0)	(1,0)	(1,0)	(1,0)	(1,0)	(1,0)	(1,0)	(1,0)	
L1D 159>	(88,1)	(92,2)	(160,1)	(1,0)	(1,0)	(1,0)	(1,0)	(1,0)	(1,0)	(1,0)	(1,0)	(1,0)	(1,0)	(1,0)	(1,0)	(1,0)	
L1D 160>	(-475,4)	(160,110)	(-478,37)	(320,1)	(-318,50)	(88,1)	(4,1)	(-208,0)	(-181,0)	(1,0)	(1,0)	(1,0)	(1,0)	(1,0)	(1,0)	(1,0)	
L1D 161>	(6,1)	(88,2)	(2,1)	(-11,1)	(1,0)	(1,0)	(1,0)	(1,0)	(1,0)	(1,0)	(1,0)	(1,0)	(1,0)	(1,0)	(1,0)	(1,0)	
L1D 162>	(1,41)	(3,12)	(2,5)	(-182,2)	(-162,4)	(-145,1)	(-181,1)	(1,0)	(1,0)	(1,0)	(1,0)	(1,0)	(1,0)	(1,0)	(1,0)	(1,0)	
L1D 163>	(1,1)	(1,0)	(1,0)	(1,0)	(1,0)	(1,0)	(1,0)	(1,0)	(1,0)	(1,0)	(1,0)	(1,0)	(1,0)	(1,0)	(1,0)	(1,0)	
[...]
L1D 468>	(1,0)	(1,0)	(1,0)	(1,0)	(1,0)	(1,0)	(1,0)	(1,0)	(1,0)	(1,0)	(1,0)	(1,0)	(1,0)	(1,0)	(1,0)	(1,0)	
L1D 469>	(1,0)	(1,0)	(1,0)	(1,0)	(1,0)	(1,0)	(1,0)	(1,0)	(1,0)	(1,0)	(1,0)	(1,0)	(1,0)	(1,0)	(1,0)	(1,0)	
L1D 470>	(1,0)	(1,0)	(1,0)	(1,0)	(1,0)	(1,0)	(1,0)	(1,0)	(1,0)	(1,0)	(1,0)	(1,0)	(1,0)	(1,0)	(1,0)	(1,0)	
L1D 471>	(1,0)	(1,0)	(1,0)	(1,0)	(1,0)	(1,0)	(1,0)	(1,0)	(1,0)	(1,0)	(1,0)	(1,0)	(1,0)	(1,0)	(1,0)	(1,0)	
L1D 472>	(1,0)	(1,0)	(1,0)	(1,0)	(1,0)	(1,0)	(1,0)	(1,0)	(1,0)	(1,0)	(1,0)	(1,0)	(1,0)	(1,0)	(1,0)	(1,0)	
L1D 473>	(1,0)	(1,0)	(1,0)	(1,0)	(1,0)	(1,0)	(1,0)	(1,0)	(1,0)	(1,0)	(1,0)	(1,0)	(1,0)	(1,0)	(1,0)	(1,0)	
L1D 474>	(1,0)	(1,0)	(1,0)	(1,0)	(1,0)	(1,0)	(1,0)	(1,0)	(1,0)	(1,0)	(1,0)	(1,0)	(1,0)	(1,0)	(1,0)	(1,0)	
L1D 475>	(1,0)	(1,0)	(1,0)	(1,0)	(1,0)	(1,0)	(1,0)	(1,0)	(1,0)	(1,0)	(1,0)	(1,0)	(1,0)	(1,0)	(1,0)	(1,0)	
L1D 476>	(1,0)	(1,0)	(1,0)	(1,0)	(1,0)	(1,0)	(1,0)	(1,0)	(1,0)	(1,0)	(1,0)	(1,0)	(1,0)	(1,0)	(1,0)	(1,0)	
L1D 477>	(1,0)	(1,0)	(1,0)	(1,0)	(1,0)	(1,0)	(1,0)	(1,0)	(1,0)	(1,0)	(1,0)	(1,0)	(1,0)	(1,0)	(1,0)	(1,0)	
L1D 478>	(1,0)	(1,0)	(1,0)	(1,0)	(1,0)	(1,0)	(1,0)	(1,0)	(1,0)	(1,0)	(1,0)	(1,0)	(1,0)	(1,0)	(1,0)	(1,0)	
L1D 479>	(1,0)	(1,0)	(1,0)	(1,0)	(1,0)	(1,0)	(1,0)	(1,0)	(1,0)	(1,0)	(1,0)	(1,0)	(1,0)	(1,0)	(1,0)	(1,0)	
L1D 480>	(-320,9)	(1,0)	(1,0)	(1,0)	(1,0)	(1,0)	(1,0)	(1,0)	(1,0)	(1,0)	(1,0)	(1,0)	(1,0)	(1,0)	(1,0)	(1,0)	
L1D 481>	(1,0)	(1,0)	(1,0)	(1,0)	(1,0)	(1,0)	(1,0)	(1,0)	(1,0)	(1,0)	(1,0)	(1,0)	(1,0)	(1,0)	(1,0)	(1,0)	
L1D 482>	(1,0)	(1,0)	(1,0)	(1,0)	(1,0)	(1,0)	(1,0)	(1,0)	(1,0)	(1,0)	(1,0)	(1,0)	(1,0)	(1,0)	(1,0)	(1,0)	
L1D 483>	(1,0)	(1,0)	(1,0)	(1,0)	(1,0)	(1,0)	(1,0)	(1,0)	(1,0)	(1,0)	(1,0)	(1,0)	(1,0)	(1,0)	(1,0)	(1,0)	
L1D 484>	(1,0)	(1,0)	(1,0)	(1,0)	(1,0)	(1,0)	(1,0)	(1,0)	(1,0)	(1,0)	(1,0)	(1,0)	(1,0)	(1,0)	(1,0)	(1,0)	
L1D 485>	(1,0)	(1,0)	(1,0)	(1,0)	(1,0)	(1,0)	(1,0)	(1,0)	(1,0)	(1,0)	(1,0)	(1,0)	(1,0)	(1,0)	(1,0)	(1,0)	
L1D 486>	(1,0)	(1,0)	(1,0)	(1,0)	(1,0)	(1,0)	(1,0)	(1,0)	(1,0)	(1,0)	(1,0)	(1,0)	(1,0)	(1,0)	(1,0)	(1,0)	
L1D 487>	(1,0)	(1,0)	(1,0)	(1,0)	(1,0)	(1,0)	(1,0)	(1,0)	(1,0)	(1,0)	(1,0)	(1,0)	(1,0)	(1,0)	(1,0)	(1,0)	
L1D 488>	(1,0)	(1,0)	(1,0)	(1,0)	(1,0)	(1,0)	(1,0)	(1,0)	(1,0)	(1,0)	(1,0)	(1,0)	(1,0)	(1,0)	(1,0)	(1,0)	
L1D 489>	(1,0)	(1,0)	(1,0)	(1,0)	(1,0)	(1,0)	(1,0)	(1,0)	(1,0)	(1,0)	(1,0)	(1,0)	(1,0)	(1,0)	(1,0)	(1,0)	
L1D 490>	(1,0)	(1,0)	(1,0)	(1,0)	(1,0)	(1,0)	(1,0)	(1,0)	(1,0)	(1,0)	(1,0)	(1,0)	(1,0)	(1,0)	(1,0)	(1,0)	
L1D 491>	(1,0)	(1,0)	(1,0)	(1,0)	(1,0)	(1,0)	(1,0)	(1,0)	(1,0)	(1,0)	(1,0)	(1,0)	(1,0)	(1,0)	(1,0)	(1,0)	
L1D 492>	(1,0)	(1,0)	(1,0)	(1,0)	(1,0)	(1,0)	(1,0)	(1,0)	(1,0)	(1,0)	(1,0)	(1,0)	(1,0)	(1,0)	(1,0)	(1,0)	
L1D 493>	(1,0)	(1,0)	(1,0)	(1,0)	(1,0)	(1,0)	(1,0)	(1,0)	(1,0)	(1,0)	(1,0)	(1,0)	(1,0)	(1,0)	(1,0)	(1,0)	
L1D 494>	(1,0)	(1,0)	(1,0)	(1,0)	(1,0)	(1,0)	(1,0)	(1,0)	(1,0)	(1,0)	(1,0)	(1,0)	(1,0)	(1,0)	(1,0)	(1,0)	
L1D 495>	(1,0)	(1,0)	(1,0)	(1,0)	(1,0)	(1,0)	(1,0)	(1,0)	(1,0)	(1,0)	(1,0)	(1,0)	(1,0)	(1,0)	(1,0)	(1,0)	
L1D 496>	(1,0)	(1,0)	(1,0)	(1,0)	(1,0)	(1,0)	(1,0)	(1,0)	(1,0)	(1,0)	(1,0)	(1,0)	(1,0)	(1,0)	(1,0)	(1,0)	
L1D 497>	(1,0)	(1,0)	(1,0)	(1,0)	(1,0)	(1,0)	(1,0)	(1,0)	(1,0)	(1,0)	(1,0)	(1,0)	(1,0)	(1,0)	(1,0)	(1,0)	
L1D 498>	(1,0)	(1,0)	(1,0)	(1,0)	(1,0)	(1,0)	(1,0)	(1,0)	(1,0)	(1,0)	(1,0)	(1,0)	(1,0)	(1,0)	(1,0)	(1,0)	
L1D 499>	(1,0)	(1,0)	(1,0)	(1,0)	(1,0)	(1,0)	(1,0)	(1,0)	(1,0)	(1,0)	(1,0)	(1,0)	(1,0)	(1,0)	(1,0)	(1,0)	
L1D 500>	(1,0)	(1,0)	(1,0)	(1,0)	(1,0)	(1,0)	(1,0)	(1,0)	(1,0)	(1,0)	(1,0)	(1,0)	(1,0)	(1,0)	(1,0)	(1,0)	
L1D 501>	(1,0)	(1,0)	(1,0)	(1,0)	(1,0)	(1,0)	(1,0)	(1,0)	(1,0)	(1,0)	(1,0)	(1,0)	(1,0)	(1,0)	(1,0)	(1,0)	
L1D 502>	(1,0)	(1,0)	(1,0)	(1,0)	(1,0)	(1,0)	(1,0)	(1,0)	(1,0)	(1,0)	(1,0)	(1,0)	(1,0)	(1,0)	(1,0)	(1,0)	
L1D 503>	(1,0)	(1,0)	(1,0)	(1,0)	(1,0)	(1,0)	(1,0)	(1,0)	(1,0)	(1,0)	(1,0)	(1,0)	(1,0)	(1,0)	(1,0)	(1,0)	
L1D 504>	(-336,2)	(1,0)	(1,0)	(1,0)	(1,0)	(1,0)	(1,0)	(1,0)	(1,0)	(1,0)	(1,0)	(1,0)	(1,0)	(1,0)	(1,0)	(1,0)	
L1D 505>	(1,0)	(1,0)	(1,0)	(1,0)	(1,0)	(1,0)	(1,0)	(1,0)	(1,0)	(1,0)	(1,0)	(1,0)	(1,0)	(1,0)	(1,0)	(1,0)	
L1D 506>	(1,0)	(1,0)	(1,0)	(1,0)	(1,0)	(1,0)	(1,0)	(1,0)	(1,0)	(1,0)	(1,0)	(1,0)	(1,0)	(1,0)	(1,0)	(1,0)	
L1D 507>	(1,0)	(1,0)	(1,0)	(1,0)	(1,0)	(1,0)	(1,0)	(1,0)	(1,0)	(1,0)	(1,0)	(1,0)	(1,0)	(1,0)	(1,0)	(1,0)	
L1D 508>	(1,0)	(1,0)	(1,0)	(1,0)	(1,0)	(1,0)	(1,0)	(1,0)	(1,0)	(1,0)	(1,0)	(1,0)	(1,0)	(1,0)	(1,0)	(1,0)	
L1D 509>	(1,0)	(1,0)	(1,0)	(1,0)	(1,0)	(1,0)	(1,0)	(1,0)	(1,0)	(1,0)	(1,0)	(1,0)	(1,0)	(1,0)	(1,0)	(1,0)	
L1D 510>	(1,0)	(1,0)	(1,0)	(1,0)	(1,0)	(1,0)	(1,0)	(1,0)	(1,0)	(1,0)	(1,0)	(1,0)	(1,0)	(1,0)	(1,0)	(1,0)	
L1D 511>	(1,0)	(1,0)	(1,0)	(1,0)	(1,0)	(1,0)	(1,0)	(1,0)	(1,0)	(1,0)	(1,0)	(1,0)	(1,0)	(1,0)	(1,0)	(1,0)	

L2C -64>	(1,116)	(-63,6)	(21,43)	(-4,5)	(-20,10)	(-3,7)	(-41,137)	(4,1)	(-1,8)	(-31,12)	(-62,12)	(11,8)	(-5,17)	(-42,35)	(-52,13)	(16,19)	
L2C -63>	(11,70)	(21,17)	(32,1)	(1,10)	(31,1)	(1,0)	(1,0)	(1,0)	(1,0)	(1,0)	(1,0)	(1,0)	(1,0)	(1,0)	(1,0)	(1,0)	
L2C -62>	(21,182)	(1,4)	(11,1)	(42,2)	(10,2)	(1,0)	(1,0)	(1,0)	(1,0)	(1,0)	(1,0)	(1,0)	(1,0)	(1,0)	(1,0)	(1,0)	
L2C -61>	(21,9)	(1,3)	(24,1)	(4,2)	(1,0)	(1,0)	(1,0)	(1,0)	(1,0)	(1,0)	(1,0)	(1,0)	(1,0)	(1,0)	(1,0)	(1,0)	
L2C -60>	(56,1)	(10,1)	(3,2)	(1,0)	(1,0)	(1,0)	(1,0)	(1,0)	(1,0)	(1,0)	(1,0)	(1,0)	(1,0)	(1,0)	(1,0)	(1,0)	
L2C -59>	(50,1)	(59,1)	(46,1)	(1,3)	(49,1)	(20,2)	(1,0)	(1,0)	(1,0)	(1,0)	(1,0)	(1,0)	(1,0)	(1,0)	(1,0)	(1,0)	
L2C -58>	(1,9)	(6,1)	(48,1)	(50,1)	(21,14)	(2,1)	(11,1)	(20,1)	(1,0)	(1,0)	(1,0)	(1,0)	(1,0)	(1,0)	(1,0)	(1,0)	
L2C -57>	(1,3)	(1,0)	(1,0)	(1,0)	(1,0)	(1,0)	(1,0)	(1,0)	(1,0)	(1,0)	(1,0)	(1,0)	(1,0)	(1,0)	(1,0)	(1,0)	
L2C -56>	(2,1)	(0,1)	(1,1)	(11,3)	(1,0)	(1,0)	(1,0)	(1,0)	(1,0)	(1,0)	(1,0)	(1,0)	(1,0)	(1,0)	(1,0)	(1,0)	
L2C -55>	(11,6)	(52,1)	(21,2)	(0,1)	(-1,1)	(10,1)	(1,2)	(1,0)	(1,0)	(1,0)	(1,0)	(1,0)	(1,0)	(1,0)	(1,0)	(1,0)	
L2C -54>	(21,5)	(11,4)	(1,2)	(28,1)	(10,3)	(1,0)	(1,0)	(1,0)	(1,0)	(1,0)	(1,0)	(1,0)	(1,0)	(1,0)	(1,0)	(1,0)	
L2C -53>	(43,1)	(1,8)	(11,68)	(21,37)	(10,3)	(42,3)	(32,3)	(0,2)	(22,2)	(-9,1)	(1,0)	(1,0)	(1,0)	(1,0)	(1,0)	(1,0)	
L2C -52>	(1,7)	(21,228)	(11,28)	(-7,1)	(10,67)	(20,4)	(-5,1)	(2,1)	(31,2)	(42,2)	(13,1)	(16,2)	(14,2)	(9,1)	(43,1)	(53,1)	
L2C -51>	(21,3)	(7,1)	(1,4)	(43,1)	(-1,1)	(51,1)	(0,3)	(52,1)	(1,0)	(1,0)	(1,0)	(1,0)	(1,0)	(1,0)	(1,0)	(1,0)	
L2C -50>	(46,1)	(6,2)	(5,1)	(1,3)	(36,1)	(49,1)	(21,1)	(1,0)	(1,0)	(1,0)	(1,0)	(1,0)	(1,0)	(1,0)	(1,0)	(1,0)	
L2C -49>	(46,1)	(47,1)	(21,4)	(7,1)	(1,1)	(10,1)	(9,1)	(1,0)	(1,0)	(1,0)	(1,0)	(1,0)	(1,0)	(1,0)	(1,0)	(1,0)	
L2C -48>	(21,2)	(7,1)	(44,1)	(-5,1)	(-1,1)	(1,3)	(1,0)	(1,0)	(1,0)	(1,0)	(1,0)	(1,0)	(1,0)	(1,0)	(1,0)	(1,0)	
L2C -47>	(42,3)	(21,43)	(3,5)	(1,45)	(2,11)	(10,13)	(5,1)	(22,7)	(11,1)	(23,4)	(1,0)	(1,0)	(1,0)	(1,0)	(1,0)	(1,0)	
L2C -46>	(1,64)	(58,1)	(21,29)	(2,2)	(11,1)	(20,1)	(23,1)	(24,1)	(15,1)	(35,1)	(1,0)	(1,0)	(1,0)	(1,0)	(1,0)	(1,0)	
L2C -45>	(47,1)	(57,1)	(1,81)	(2,8)	(21,46)	(20,2)	(19,3)	(5,1)	(22,5)	(3,5)	(11,1)	(15,1)	(23,1)	(4,1)	(1,0)	(1,0)	
L2C -44>	(24,1)	(51,1)	(6,1)	(20,8)	(21,42)	(22,4)	(1,128)	(3,2)	(4,2)	(2,13)	(42,2)	(49,1)	(-7,1)	(19,1)	(18,2)	(23,1)	
L2C -43>	(42,4)	(52,1)	(1,89)	(21,37)	(-4,1)	(2,3)	(4,4)	(3,3)	(19,5)	(18,1)	(16,1)	(-1,11)	(11,1)	(5,2)	(22,3)	(1,0)	
L2C -42>	(20,1)	(22,6)	(1,125)	(11,55)	(42,14)	(21,198)	(0,6)	(40,1)	(2,2)	(-10,2)	(32,0)	(53,0)	(5,0)	(3,3)	(-7,0)	(10,32)	
L2C -41>	(21,235)	(4,1)	(1,47)	(10,8)	(3,1)	(42,3)	(19,1)	(0,12)	(5,1)	(1,0)	(1,0)	(1,0)	(1,0)	(1,0)	(1,0)	(1,0)	
L2C -40>	(20,5)	(21,2)	(51,2)	(60,1)	(1,15)	(-1,1)	(-4,1)	(3,1)	(37,1)	(5,1)	(18,2)	(41,1)	(2,1)	(1,0)	(1,0)	(1,0)	
L2C -39>	(1,12)	(21,1)	(46,1)	(16,1)	(20,16)	(40,1)	(2,1)	(1,0)	(1,0)	(1,0)	(1,0)	(1,0)	(1,0)	(1,0)	(1,0)	(1,0)	
L2C -38>	(52,1)	(1,3)	(5,1)	(2,1)	(18,1)	(33,1)	(-10,1)	(39,1)	(17,1)	(21,1)	(34,1)	(1,0)	(1,0)	(1,0)	(1,0)	(1,0)	
L2C -37>	(38,1)	(2,1)	(1,2)	(21,4)	(11,1)	(-3,1)	(1,0)	(1,0)	(1,0)	(1,0)	(1,0)	(1,0)	(1,0)	(1,0)	(1,0)	(1,0)	
L2C -36>	(16,1)	(1,3)	(42,1)	(0,2)	(1,0)	(1,0)	(1,0)	(1,0)	(1,0)	(1,0)	(1,0)	(1,0)	(1,0)	(1,0)	(1,0)	(1,0)	
L2C -35>	(2,2)	(4,3)	(1,2)	(-4,1)	(1,0)	(1,0)	(1,0)	(1,0)	(1,0)	(1,0)	(1,0)	(1,0)	(1,0)	(1,0)	(1,0)	(1,0)	
L2C -34>	(1,5)	(1,0)	(1,0)	(1,0)	(1,0)	(1,0)	(1,0)	(1,0)	(1,0)	(1,0)	(1,0)	(1,0)	(1,0)	(1,0)	(1,0)	(1,0)	
L2C -33>	(9,2)	(42,1)	(1,5)	(33,1)	(1,0)	(1,0)	(1,0)	(1,0)	(1,0)	(1,0)	(1,0)	(1,0)	(1,0)	(1,0)	(1,0)	(1,0)	
L2C -32>	(21,35)	(7,1)	(-9,1)	(1,6)	(11,7)	(32,2)	(0,5)	(27,2)	(3,1)	(28,1)	(-2,1)	(42,1)	(39,1)	(2,1)	(1,0)	(1,0)	
L2C -31>	(0,1)	(10,14)	(21,154)	(44,1)	(-6,1)	(11,2)	(5,1)	(50,1)	(9,1)	(12,1)	(20,1)	(1,0)	(1,0)	(1,0)	(1,0)	(1,0)	
L2C -30>	(11,1)	(-2,1)	(-5,1)	(1,2)	(2,1)	(27,1)	(1,0)	(1,0)	(1,0)	(1,0)	(1,0)	(1,0)	(1,0)	(1,0)	(1,0)	(1,0)	
L2C -29>	(7,1)	(4,1)	(29,2)	(24,1)	(10,1)	(21,1)	(8,1)	(1,1)	(2,1)	(-25,1)	(-22,1)	(1,0)	(1,0)	(1,0)	(1,0)	(1,0)	
L2C -28>	(21,2)	(1,7)	(-25,1)	(2,1)	(-1,4)	(5,1)	(28,1)	(27,1)	(8,1)	(17,1)	(0,1)	(1,0)	(1,0)	(1,0)	(1,0)	(1,0)	
L2C -27>	(21,4)	(1,5)	(-1,3)	(24,1)	(3,2)	(27,1)	(-21,1)	(-8,1)	(1,0)	(1,0)	(1,0)	(1,0)	(1,0)	(1,0)	(1,0)	(1,0)	
L2C -26>	(20,1)	(47,1)	(21,16)	(4,3)	(5,1)	(32,1)	(-20,2)	(15,1)	(1,21)	(2,4)	(-2,4)	(11,3)	(3,2)	(10,1)	(27,1)	(9,1)	
L2C -25>	(1,23)	(21,5)	(26,2)	(4,2)	(19,1)	(2,5)	(3,8)	(-4,2)	(-21,2)	(-17,1)	(24,2)	(-3,1)	(-10,1)	(-7,2)	(-2,1)	(-20,2)	
L2C -24>	(21,10)	(22,1)	(1,23)	(16,1)	(-15,1)	(3,3)	(-1,5)	(2,2)	(-19,2)	(28,1)	(4,3)	(-20,1)	(-12,1)	(0,1)	(18,1)	(-4,1)	
L2C -23>	(1,46)	(-20,5)	(20,1)	(22,2)	(21,13)	(-2,2)	(2,5)	(41,4)	(3,3)	(45,9)	(25,2)	(11,1)	(-19,1)	(19,1)	(-3,1)	(18,1)	
L2C -22>	(2,7)	(20,1)	(1,34)	(41,8)	(-1,2)	(21,21)	(10,2)	(-2,3)	(14,1)	(4,1)	(18,2)	(0,2)	(22,3)	(-4,2)	(-20,2)	(3,3)	
L2C -21>	(0,7)	(1,37)	(22,10)	(11,17)	(20,3)	(3,4)	(4,4)	(21,93)	(-2,1)	(18,3)	(28,3)	(10,7)	(5,2)	(-23,2)	(16,2)	(2,7)	
L2C -20>	(21,173)	(1,148)	(-9,2)	(-42,3)	(4,4)	(20,2)	(39,3)	(-22,2)	(10,2)	(0,9)	(41,7)	(-1,1)	(3,4)	(22,7)	(2,7)	(24,1)	
L2C -19>	(1,47)	(-2,2)	(-21,1)	(21,10)	(23,1)	(-23,1)	(20,12)	(3,13)	(18,1)	(40,3)	(2,3)	(19,1)	(0,1)	(-1,2)	(42,1)	(44,1)	
L2C -18>	(-22,1)	(1,25)	(19,15)	(-1,2)	(-10,1)	(2,1)	(20,4)	(21,1)	(-8,1)	(-3,1)	(39,1)	(-21,1)	(15,1)	(14,1)	(-7,1)	(11,1)	
L2C -17>	(27,1)	(1,28)	(-9,1)	(21,1)	(19,1)	(0,2)	(-5,2)	(2,1)	(47,1)	(18,5)	(-1,1)	(15,1)	(-19,1)	(16,1)	(-4,1)	(1,0)	
L2C -16>	(21,3)	(-9,1)	(1,14)	(11,31)	(2,2)	(17,19)	(19,1)	(18,5)	(0,11)	(37,3)	(-26,2)	(-7,1)	(-5,1)	(-2,1)	(-37,1)	(14,1)	
L2C -15>	(1,7)	(2,2)	(20,1)	(-1,2)	(45,1)	(32,2)	(-5,1)	(-7,1)	(-8,1)	(10,11)	(-6,1)	(9,1)	(4,1)	(26,1)	(11,3)	(16,1)	
L2C -14>	(4,1)	(0,2)	(1,10)	(15,1)	(21,1)	(-2,1)	(5,1)	(14,2)	(-7,2)	(10,2)	(1,0)	(1,0)	(1,0)	(1,0)	(1,0)	(1,0)	
L2C -13>	(2,2)	(1,7)	(9,1)	(-45,1)	(13,1)	(4,1)	(-10,1)	(-9,2)	(-8,2)	(0,1)	(19,2)	(-21,1)	(25,2)	(30,1)	(-1,1)	(-7,1)	
L2C -12>	(39,1)	(1,14)	(-41,1)	(-1,1)	(2,2)	(-10,3)	(28,1)	(6,1)	(9,4)	(35,1)	(13,2)	(-9,1)	(10,2)	(-7,1)	(-3,2)	(24,1)	
L2C -11>	(-2,2)	(29,2)	(11,81)	(-1,6)	(10,2)	(-3,3)	(9,3)	(1,16)	(12,1)	(32,2)	(-10,4)	(0,23)	(-25,1)	(21,2)	(6,3)	(3,2)	
L2C -10>	(11,13)	(-10,12)	(21,21)	(-31,25)	(31,5)	(12,1)	(1,59)	(13,3)	(20,8)	(5,2)	(3,2)	(-1,5)	(26,2)	(10,108)	(0,22)	(2,7)	
L2C -9>	(12,2)	(1,49)	(21,3)	(-44,1)	(-6,1)	(9,4)	(-13,1)	(-1,2)	(2,3)	(20,2)	(0,4)	(-2,1)	(5,1)	(26,1)	(25,1)	(10,1)	
L2C -8>	(-21,1)	(5,1)	(1,172)	(-2,1)	(44,1)	(-1,1)	(19,0)	(3,1)	(4,0)	(-6,0)	(11,0)	(-11,0)	(8,0)	(21,1)	(-5,0)	(20,0)	
L2C -7>	(1,112)	(2,5)	(-1,3)	(21,1)	(15,1)	(25,1)	(-2,1)	(-4,2)	(7,18)	(0,4)	(8,2)	(22,2)	(4,2)	(48,1)	(31,1)	(11,1)	
L2C -6>	(1,23)	(14,2)	(-10,2)	(23,1)	(2,10)	(47,1)	(7,5)	(21,4)	(-3,1)	(38,2)	(0,9)	(16,1)	(43,1)	(4,3)	(25,1)	(-21,2)	
L2C -5>	(5,9)	(1,103)	(6,2)	(24,1)	(2,14)	(-50,1)	(0,61)	(3,2)	(4,8)	(21,11)	(10,13)	(-1,3)	(16,3)	(11,4)	(15,5)	(22,2)	
L2C -4>	(3,5)	(1,113)	(-19,2)	(-17,1)	(-2,3)	(-1,10)	(2,10)	(21,8)	(0,27)	(5,9)	(10,1)	(-39,2)	(29,2)	(-18,1)	(-36,1)	(4,7)	
L2C -3>	(-1,5)	(3,13)	(11,2)	(-17,1)	(23,1)	(-21,4)	(14,1)	(1,141)	(-8,1)	(-13,1)	(0,31)	(2,11)	(-2,1)	(10,2)	(19,1)	(4,3)	
L2C -2>	(3,13)	(1,169)	(11,130)	(-26,6)	(21,1)	(-41,2)	(13,12)	(-6,3)	(-1,11)	(-5,3)	(-43,3)	(-15,2)	(12,2)	(-13,1)	(0,26)	(2,26)	
L2C -1>	(22,1)	(1,182)	(2,6)	(-44,1)	(29,3)	(-10,1)	(3,2)	(-1,5)	(0,2)	(6,1)	(19,0)	(25,0)	(-22,1)	(-39,0)	(40,0)	(21,1)	
L2C 0>	(0,196)	(20,1)	(21,13)	(-7,1)	(1,57)	(5,3)	(3,1)	(-1,3)	(2,4)	(11,7)	(-42,1)	(10,1)	(29,1)	(28,1)	(-2,1)	(25,1)	
L2C 1>	(2,6)	(20,9)	(1,213)	(19,13)	(17,6)	(-47,1)	(0,3)	(18,10)	(-44,3)	(6,9)	(-2,5)	(-5,5)	(-45,5)	(-46,3)	(-1,40)	(-3,8)	
L2C 2>	(1,210)	(9,109)	(11,20)	(2,22)	(-1,8)	(20,8)	(17,15)	(-2,20)	(-3,11)	(-44,1)	(3,6)	(0,6)	(-43,5)	(-4,4)	(18,14)	(6,5)	
L2C 3>	(18,22)	(17,23)	(1,129)	(-2,1)	(3,8)	(-47,11)	(-4,7)	(2,8)	(16,23)	(-46,5)	(-3,24)	(0,3)	(-5,7)	(15,5)	(19,8)	(41,7)	
L2C 4>	(-4,10)	(13,3)	(1,74)	(2,7)	(-26,6)	(3,2)	(-16,2)	(-5,14)	(-3,4)	(5,3)	(-1,3)	(16,25)	(17,1)	(-47,10)	(0,3)	(-2,1)	
L2C 5>	(1,35)	(17,1)	(-10,9)	(-1,3)	(11,25)	(-52,12)	(10,63)	(2,5)	(-7,3)	(-4,7)	(21,2)	(16,20)	(-6,3)	(-26,5)	(-5,28)	(-47,4)	
L2C 6>	(-8,2)	(-5,3)	(1,234)	(-6,1)	(-1,3)	(40,1)	(41,1)	(13,1)	(43,1)	(4,3)	(10,9)	(19,3)	(-7,91)	(-25,1)	(6,1)	(5,9)	
L2C 7>	(-1,3)	(1,29)	(-10,1)	(-6,3)	(3,1)	(11,1)	(2,1)	(6,1)	(22,2)	(-8,90)	(0,2)	(-2,3)	(-3,1)	(17,1)	(-7,18)	(19,2)	
L2C 8>	(2,3)	(1,16)	(-7,3)	(3,3)	(-36,1)	(-3,1)	(-11,1)	(-18,1)	(19,1)	(20,1)	(-8,2)	(-1,1)	(-9,1)	(-19,1)	(5,1)	(0,2)	
L2C 9>	(2,237)	(-10,1)	(-8,4)	(-53,2)	(-1,2)	(-9,3)	(-59,1)	(6,1)	(1,12)	(4,2)	(29,1)	(-18,1)	(-6,1)	(3,6)	(-16,1)	(9,1)	
L2C 10>	(1,52)	(11,171)	(-20,4)	(-41,5)	(0,4)	(-53,1)	(10,2)	(-21,4)	(-52,45)	(-9,15)	(2,4)	(6,5)	(-42,10)	(21,25)	(-62,2)	(-10,33)	
L2C 11>	(-2,26)	(2,31)	(9,2)	(-11,33)	(11,4)	(-28,2)	(21,64)	(-10,21)	(-9,1)	(-42,23)	(-52,3)	(-21,2)	(-53,47)	(1,29)	(0,2)	(10,147)	
L2C 12>	(2,1)	(9,1)	(1,12)	(-13,1)	(-45,1)	(-12,1)	(-1,3)	(-11,1)	(21,1)	(20,1)	(0,1)	(-18,1)	(-2,1)	(-54,2)	(1,0)	(1,0)	
L2C 13>	(-11,6)	(0,1)	(-10,1)	(9,1)	(1,14)	(-18,1)	(-59,1)	(-12,9)	(-13,3)	(2,3)	(19,1)	(-38,1)	(10,2)	(6,1)	(-16,1)	(8,1)	
L2C 14>	(1,11)	(-12,1)	(-58,1)	(-2,1)	(-14,2)	(7,1)	(-1,1)	(4,1)	(5,1)	(-33,1)	(10,1)	(-21,1)	(1,0)	(1,0)	(1,0)	(1,0)	
L2C 15>	(1,67)	(20,1)	(-14,2)	(-20,4)	(-10,3)	(6,4)	(-2,1)	(-52,5)	(17,1)	(0,1)	(-1,1)	(4,1)	(8,2)	(11,4)	(-46,1)	(-16,1)	
L2C 16>	(1,82)	(21,52)	(-42,19)	(2,23)	(-21,13)	(22,4)	(10,3)	(-53,5)	(5,15)	(20,2)	(3,4)	(-10,2)	(-41,1)	(4,2)	(-30,1)	(-32,5)	
L2C 17>	(21,19)	(1,185)	(11,5)	(19,1)	(3,4)	(2,23)	(-21,2)	(4,10)	(7,1)	(5,3)	(-43,8)	(-42,9)	(-16,8)	(-22,3)	(20,6)	(10,5)	
L2C 18>	(-42,16)	(10,3)	(2,29)	(21,41)	(1,225)	(-40,3)	(-17,12)	(3,7)	(22,4)	(-21,9)	(-41,5)	(-20,3)	(5,3)	(-23,1)	(7,1)	(-44,11)	
L2C 19>	(22,1)	(1,156)	(-18,7)	(-43,3)	(21,23)	(-21,3)	(-42,6)	(2,22)	(-20,1)	(-39,1)	(20,6)	(-16,1)	(3,1)	(-4,2)	(-22,1)	(-41,4)	
L2C 20>	(21,23)	(2,28)	(3,1)	(-19,22)	(1,234)	(11,5)	(-20,5)	(20,20)	(-52,5)	(-21,4)	(-43,5)	(-42,9)	(-22,4)	(-18,4)	(-39,8)	(-1,3)	
L2C 21>	(-42,123)	(-43,4)	(-20,70)	(1,97)	(-21,25)	(21,224)	(-41,55)	(2,2)	(-31,1)	(-62,2)	(10,24)	(11,43)	(-18,4)	(-19,8)	(31,1)	(-16,3)	
L2C 22>	(-21,10)	(-20,16)	(1,37)	(2,6)	(-2,3)	(21,23)	(-42,3)	(-1,4)	(-25,5)	(-43,2)	(0,2)	(19,2)	(-44,1)	(3,1)	(-19,5)	(-40,1)	
L2C 23>	(13,1)	(1,12)	(16,1)	(-42,1)	(-29,1)	(-2,1)	(-44,1)	(2,1)	(-22,1)	(-37,1)	(-21,1)	(1,0)	(1,0)	(1,0)	(1,0)	(1,0)	
L2C 24>	(-2,1)	(1,6)	(-50,2)	(-29,1)	(-28,1)	(22,1)	(-47,1)	(-3,1)	(-43,1)	(-22,2)	(-18,1)	(5,1)	(16,1)	(20,1)	(-1,1)	(-20,1)	
L2C 25>	(11,1)	(1,4)	(-24,1)	(-1,2)	(-22,1)	(-47,1)	(-4,7)	(4,1)	(-23,1)	(-27,1)	(1,0)	(1,0)	(1,0)	(1,0)	(1,0)	(1,0)	
L2C 26>	(2,1)	(-9,1)	(1,7)	(-1,2)	(-23,1)	(-17,1)	(11,2)	(-7,1)	(-6,1)	(21,1)	(1,0)	(1,0)	(1,0)	(1,0)	(1,0)	(1,0)	
L2C 27>	(-52,1)	(-22,1)	(-28,4)	(-2,1)	(1,7)	(-19,1)	(-21,1)	(-27,1)	(0,1)	(-29,1)	(-48,1)	(-47,1)	(1,0)	(1,0)	(1,0)	(1,0)	
L2C 28>	(-10,1)	(-18,1)	(-27,2)	(1,6)	(-1,3)	(-5,1)	(-20,1)	(-49,1)	(-29,1)	(-11,1)	(-28,1)	(1,0)	(1,0)	(1,0)	(1,0)	(1,0)	
L2C 29>	(1,6)	(-25,1)	(-26,5)	(-4,2)	(-27,1)	(-29,2)	(-20,2)	(-19,1)	(-28,2)	(-8,1)	(1,0)	(1,0)	(1,0)	(1,0)	(1,0)	(1,0)	
L2C 30>	(2,2)	(12,1)	(-51,1)	(-39,1)	(3,1)	(1,0)	(1,0)	(1,0)	(1,0)	(1,0)	(1,0)	(1,0)	(1,0)	(1,0)	(1,0)	(1,0)	
L2C 31>	(1,5)	(-10,5)	(21,2)	(2,1)	(11,4)	(0,1)	(-26,1)	(12,2)	(-41,2)	(-52,3)	(1,0)	(1,0)	(1,0)	(1,0)	(1,0)	(1,0)	
L2C 32>	(11,1)	(21,3)	(-10,2)	(1,2)	(-9,1)	(-7,1)	(-42,3)	(-32,4)	(-33,1)	(-1,1)	(10,1)	(-21,1)	(1,0)	(1,0)	(1,0)	(1,0)	
L2C 33>	(-31,1)	(1,2)	(-27,1)	(-42,1)	(-19,1)	(-32,1)	(-18,1)	(1,0)	(1,0)	(1,0)	(1,0)	(1,0)	(1,0)	(1,0)	(1,0)	(1,0)	
L2C 34>	(2,1)	(11,1)	(-21,1)	(1,3)	(-49,1)	(-13,1)	(1,0)	(1,0)	(1,0)	(1,0)	(1,0)	(1,0)	(1,0)	(1,0)	(1,0)	(1,0)	
L2C 35>	(-33,2)	(13,1)	(-18,2)	(1,2)	(1,0)	(1,0)	(1,0)	(1,0)	(1,0)	(1,0)	(1,0)	(1,0)	(1,0)	(1,0)	(1,0)	(1,0)	
L2C 36>	(9,3)	(-8,1)	(-36,1)	(1,1)	(1,0)	(1,0)	(1,0)	(1,0)	(1,0)	(1,0)	(1,0)	(1,0)	(1,0)	(1,0)	(1,0)	(1,0)	
L2C 37>	(-20,4)	(1,7)	(3,1)	(-40,1)	(-42,1)	(-39,1)	(-43,1)	(-19,3)	(0,1)	(-18,1)	(1,0)	(1,0)	(1,0)	(1,0)	(1,0)	(1,0)	
L2C 38>	(1,7)	(-37,1)	(2,1)	(-38,1)	(-1,1)	(4,1)	(-20,2)	(1,0)	(1,0)	(1,0)	(1,0)	(1,0)	(1,0)	(1,0)	(1,0)	(1,0)	
L2C 39>	(21,1)	(-20,3)	(0,1)	(-18,2)	(1,8)	(-19,2)	(3,1)	(-11,1)	(-54,1)	(1,0)	(1,0)	(1,0)	(1,0)	(1,0)	(1,0)	(1,0)	
L2C 40>	(1,12)	(11,1)	(12,1)	(-20,6)	(-43,1)	(0,1)	(-41,1)	(-19,1)	(-37,1)	(-42,1)	(1,0)	(1,0)	(1,0)	(1,0)	(1,0)	(1,0)	
L2C 41>	(2,1)	(-4,2)	(4,1)	(1,14)	(-19,1)	(10,3)	(-40,4)	(-39,1)	(-22,1)	(-23,2)	(-43,4)	(3,1)	(-1,8)	(-16,1)	(-42,1)	(1,0)	
L2C 42>	(-41,15)	(-31,2)	(-20,2)	(-62,2)	(11,2)	(10,3)	(-43,1)	(-26,1)	(0,1)	(-23,2)	(-24,4)	(-21,7)	(-42,20)	(-32,1)	(-48,1)	(-45,1)	
L2C 43>	(-42,2)	(9,1)	(-4,1)	(1,3)	(-39,1)	(-27,1)	(4,1)	(-22,1)	(1,0)	(1,0)	(1,0)	(1,0)	(1,0)	(1,0)	(1,0)	(1,0)	
L2C 44>	(1,3)	(-10,1)	(-24,1)	(-13,1)	(-45,1)	(-41,1)	(-18,1)	(-43,1)	(2,1)	(-23,1)	(-15,1)	(1,0)	(1,0)	(1,0)	(1,0)	(1,0)	
L2C 45>	(2,1)	(0,1)	(-44,2)	(-4,6)	(-2,2)	(-8,1)	(-24,1)	(-20,1)	(-47,1)	(1,0)	(1,0)	(1,0)	(1,0)	(1,0)	(1,0)	(1,0)	
L2C 46>	(-21,1)	(-40,1)	(13,1)	(-41,1)	(-45,1)	(1,2)	(1,0)	(1,0)	(1,0)	(1,0)	(1,0)	(1,0)	(1,0)	(1,0)	(1,0)	(1,0)	
L2C 47>	(-22,1)	(2,2)	(-1,1)	(1,0)	(1,0)	(1,0)	(1,0)	(1,0)	(1,0)	(1,0)	(1,0)	(1,0)	(1,0)	(1,0)	(1,0)	(1,0)	
L2C 48>	(-1,1)	(2,1)	(1,1)	(1,0)	(1,0)	(1,0)	(1,0)	(1,0)	(1,0)	(1,0)	(1,0)	(1,0)	(1,0)	(1,0)	(1,0)	(1,0)	
L2C 49>	(1,2)	(-1,1)	(-17,1)	(1,0)	(1,0)	(1,0)	(1,0)	(1,0)	(1,0)	(1,0)	(1,0)	(1,0)	(1,0)	(1,0)	(1,0)	(1,0)	
L2C 50>	(-1,2)	(10,1)	(0,1)	(1,0)	(1,0)	(1,0)	(1,0)	(1,0)	(1,0)	(1,0)	(1,0)	(1,0)	(1,0)	(1,0)	(1,0)	(1,0)	
L2C 51>	(1,2)	(9,1)	(-50,1)	(-1,1)	(-51,1)	(0,1)	(1,0)	(1,0)	(1,0)	(1,0)	(1,0)	(1,0)	(1,0)	(1,0)	(1,0)	(1,0)	
L2C 52>	(-8,1)	(1,5)	(-52,1)	(1,0)	(1,0)	(1,0)	(1,0)	(1,0)	(1,0)	(1,0)	(1,0)	(1,0)	(1,0)	(1,0)	(1,0)	(1,0)	
L2C 53>	(-10,1)	(1,1)	(-42,1)	(1,0)	(1,0)	(1,0)	(1,0)	(1,0)	(1,0)	(1,0)	(1,0)	(1,0)	(1,0)	(1,0)	(1,0)	(1,0)	
L2C 54>	(-9,1)	(1,0)	(1,0)	(1,0)	(1,0)	(1,0)	(1,0)	(1,0)	(1,0)	(1,0)	(1,0)	(1,0)	(1,0)	(1,0)	(1,0)	(1,0)	
L2C 55>	(-28,1)	(1,1)	(1,0)	(1,0)	(1,0)	(1,0)	(1,0)	(1,0)	(1,0)	(1,0)	(1,0)	(1,0)	(1,0)	(1,0)	(1,0)	(1,0)	
L2C 56>	(-50,1)	(1,0)	(1,0)	(1,0)	(1,0)	(1,0)	(1,0)	(1,0)	(1,0)	(1,0)	(1,0)	(1,0)	(1,0)	(1,0)	(1,0)	(1,0)	
L2C 57>	(1,1)	(1,0)	(1,0)	(1,0)	(1,0)	(1,0)	(1,0)	(1,0)	(1,0)	(1,0)	(1,0)	(1,0)	(1,0)	(1,0)	(1,0)	(1,0)	
L2C 58>	(-23,1)	(1,0)	(1,0)	(1,0)	(1,0)	(1,0)	(1,0)	(1,0)	(1,0)	(1,0)	(1,0)	(1,0)	(1,0)	(1,0)	(1,0)	(1,0)	
L2C 59>	(-2,1)	(1,0)	(1,0)	(1,0)	(1,0)	(1,0)	(1,0)	(1,0)	(1,0)	(1,0)	(1,0)	(1,0)	(1,0)	(1,0)	(1,0)	(1,0)	
L2C 60>	(-2,1)	(-19,1)	(1,0)	(1,0)	(1,0)	(1,0)	(1,0)	(1,0)	(1,0)	(1,0)	(1,0)	(1,0)	(1,0)	(1,0)	(1,0)	(1,0)	
L2C 61>	(1,0)	(1,0)	(1,0)	(1,0)	(1,0)	(1,0)	(1,0)	(1,0)	(1,0)	(1,0)	(1,0)	(1,0)	(1,0)	(1,0)	(1,0)	(1,0)	
L2C 62>	(1,0)	(1,0)	(1,0)	(1,0)	(1,0)	(1,0)	(1,0)	(1,0)	(1,0)	(1,0)	(1,0)	(1,0)	(1,0)	(1,0)	(1,0)	(1,0)	
L2C 63>	(-52,2)	(1,0)	(1,0)	(1,0)	(1,0)	(1,0)	(1,0)	(1,0)	(1,0)	(1,0)	(1,0)	(1,0)	(1,0)	(1,0)	(1,0)	(1,0)	

DRAM Statistics
 CHANNEL 0
 RQ ROW_BUFFER_HIT:      30354  ROW_BUFFER_MISS:      12049
 DBUS_CONGESTED:      27637
 WQ ROW_BUFFER_HIT:       1178  ROW_BUFFER_MISS:       4584  FULL:          0

 AVG_CONGESTED_CYCLE: 6
