
*** ChampSim Multicore Out-of-Order Simulator ***

Warmup Instructions: 1000000
Simulation Instructions: 10000000
Number of CPUs: 1
LLC sets: 2048
LLC ways: 16
Off-chip DRAM Size: 4096 MB Channels: 1 Width: 64-bit Data Rate: 3200 MT/s

CPU 0 runs /home/virtualcse/Data-Prefetching/ChampSim/dpc3_traces/625.x264_s-39B.champsimtrace.xz
Ultra pref. initializing...
Ultra pref. initialized
Ultra pref. initializing...
Ultra pref. initialized

Warmup complete CPU 0 instructions: 1000001 cycles: 301751 (Simulation time: 0 hr 0 min 1 sec) 

Heartbeat CPU 0 instructions: 10000002 cycles: 4834917 heartbeat IPC: 2.06829 cumulative IPC: 1.98537 (Simulation time: 0 hr 0 min 12 sec) 
Finished CPU 0 instructions: 10000000 cycles: 5054591 cumulative IPC: 1.9784 (Simulation time: 0 hr 0 min 13 sec) 

CPU 0 Branch Prediction Accuracy: 93.7431% MPKI: 2.398 Average ROB Occupancy at Mispredict: 59.4164

ChampSim completed all CPUs

Region of Interest Statistics

CPU 0 cumulative IPC: 1.9784 instructions: 10000000 cycles: 5054591
L1D TOTAL     ACCESS:    2633869  HIT:    2568011  MISS:      65858
L1D LOAD      ACCESS:     910725  HIT:     893247  MISS:      17478
L1D RFO       ACCESS:     684865  HIT:     676448  MISS:       8417
L1D PREFETCH  ACCESS:    1038279  HIT:     998316  MISS:      39963
L1D WRITEBACK ACCESS:          0  HIT:          0  MISS:          0
L1D PREFETCH  REQUESTED:   13365284  ISSUED:   11234378  USEFUL:       6078  USELESS:      35252
L1D AVERAGE MISS LATENCY: 29.4336 cycles
L1I TOTAL     ACCESS:     546752  HIT:     478290  MISS:      68462
L1I LOAD      ACCESS:     546752  HIT:     478290  MISS:      68462
L1I RFO       ACCESS:          0  HIT:          0  MISS:          0
L1I PREFETCH  ACCESS:          0  HIT:          0  MISS:          0
L1I WRITEBACK ACCESS:          0  HIT:          0  MISS:          0
L1I PREFETCH  REQUESTED:          0  ISSUED:          0  USEFUL:          0  USELESS:          0
L1I AVERAGE MISS LATENCY: 13.0984 cycles
L2C TOTAL     ACCESS:    1007372  HIT:     987658  MISS:      19714
L2C LOAD      ACCESS:      85004  HIT:      83212  MISS:       1792
L2C RFO       ACCESS:       8337  HIT:       6333  MISS:       2004
L2C PREFETCH  ACCESS:     902851  HIT:     886949  MISS:      15902
L2C WRITEBACK ACCESS:      11180  HIT:      11164  MISS:         16
L2C PREFETCH  REQUESTED:    2085621  ISSUED:    1301568  USEFUL:       4532  USELESS:      10712
L2C AVERAGE MISS LATENCY: 117.955 cycles
LLC TOTAL     ACCESS:      22280  HIT:      12210  MISS:      10070
LLC LOAD      ACCESS:       1727  HIT:        668  MISS:       1059
LLC RFO       ACCESS:       2004  HIT:        168  MISS:       1836
LLC PREFETCH  ACCESS:      15967  HIT:       8792  MISS:       7175
LLC WRITEBACK ACCESS:       2582  HIT:       2582  MISS:          0
LLC PREFETCH  REQUESTED:          0  ISSUED:          0  USEFUL:        545  USELESS:          0
LLC AVERAGE MISS LATENCY: 168.615 cycles
Major fault: 0 Minor fault: 344

L1D -512>	(2,11)	(0,57)	(8,2)	(-168,2)	(1,59)	(17,2)	(-8,1)	(7,15)	(161,3)	(168,82)	(4,2)	(84,9)	(3,1)	(-113,1)	(14,1)	(6,2)	
L1D -511>	(1,0)	(1,0)	(1,0)	(1,0)	(1,0)	(1,0)	(1,0)	(1,0)	(1,0)	(1,0)	(1,0)	(1,0)	(1,0)	(1,0)	(1,0)	(1,0)	
L1D -510>	(1,0)	(1,0)	(1,0)	(1,0)	(1,0)	(1,0)	(1,0)	(1,0)	(1,0)	(1,0)	(1,0)	(1,0)	(1,0)	(1,0)	(1,0)	(1,0)	
L1D -509>	(1,0)	(1,0)	(1,0)	(1,0)	(1,0)	(1,0)	(1,0)	(1,0)	(1,0)	(1,0)	(1,0)	(1,0)	(1,0)	(1,0)	(1,0)	(1,0)	
L1D -508>	(168,2)	(1,1)	(167,1)	(1,0)	(1,0)	(1,0)	(1,0)	(1,0)	(1,0)	(1,0)	(1,0)	(1,0)	(1,0)	(1,0)	(1,0)	(1,0)	
L1D -507>	(168,2)	(1,1)	(1,0)	(1,0)	(1,0)	(1,0)	(1,0)	(1,0)	(1,0)	(1,0)	(1,0)	(1,0)	(1,0)	(1,0)	(1,0)	(1,0)	
L1D -506>	(168,31)	(1,6)	(2,1)	(0,2)	(167,1)	(1,0)	(1,0)	(1,0)	(1,0)	(1,0)	(1,0)	(1,0)	(1,0)	(1,0)	(1,0)	(1,0)	
L1D -505>	(0,10)	(168,92)	(1,21)	(2,7)	(167,6)	(1,0)	(1,0)	(1,0)	(1,0)	(1,0)	(1,0)	(1,0)	(1,0)	(1,0)	(1,0)	(1,0)	
L1D -504>	(168,123)	(1,16)	(167,1)	(0,3)	(336,1)	(504,3)	(2,6)	(166,1)	(1,0)	(1,0)	(1,0)	(1,0)	(1,0)	(1,0)	(1,0)	(1,0)	
L1D -503>	(168,70)	(0,7)	(167,0)	(1,6)	(504,0)	(3,1)	(2,0)	(169,0)	(1,0)	(1,0)	(1,0)	(1,0)	(1,0)	(1,0)	(1,0)	(1,0)	
L1D -502>	(0,7)	(1,7)	(168,70)	(169,1)	(3,1)	(167,2)	(2,2)	(1,0)	(1,0)	(1,0)	(1,0)	(1,0)	(1,0)	(1,0)	(1,0)	(1,0)	
L1D -501>	(168,10)	(165,3)	(167,4)	(1,2)	(166,1)	(0,1)	(1,0)	(1,0)	(1,0)	(1,0)	(1,0)	(1,0)	(1,0)	(1,0)	(1,0)	(1,0)	
L1D -500>	(166,2)	(168,4)	(165,1)	(1,0)	(1,0)	(1,0)	(1,0)	(1,0)	(1,0)	(1,0)	(1,0)	(1,0)	(1,0)	(1,0)	(1,0)	(1,0)	
L1D -499>	(168,3)	(165,1)	(1,0)	(1,0)	(1,0)	(1,0)	(1,0)	(1,0)	(1,0)	(1,0)	(1,0)	(1,0)	(1,0)	(1,0)	(1,0)	(1,0)	
L1D -498>	(168,4)	(167,1)	(1,1)	(1,0)	(1,0)	(1,0)	(1,0)	(1,0)	(1,0)	(1,0)	(1,0)	(1,0)	(1,0)	(1,0)	(1,0)	(1,0)	
L1D -497>	(0,1)	(2,1)	(1,0)	(1,0)	(1,0)	(1,0)	(1,0)	(1,0)	(1,0)	(1,0)	(1,0)	(1,0)	(1,0)	(1,0)	(1,0)	(1,0)	
L1D -496>	(0,1)	(168,5)	(1,0)	(1,0)	(1,0)	(1,0)	(1,0)	(1,0)	(1,0)	(1,0)	(1,0)	(1,0)	(1,0)	(1,0)	(1,0)	(1,0)	
L1D -495>	(168,1)	(1,0)	(1,0)	(1,0)	(1,0)	(1,0)	(1,0)	(1,0)	(1,0)	(1,0)	(1,0)	(1,0)	(1,0)	(1,0)	(1,0)	(1,0)	
L1D -494>	(168,2)	(1,0)	(1,0)	(1,0)	(1,0)	(1,0)	(1,0)	(1,0)	(1,0)	(1,0)	(1,0)	(1,0)	(1,0)	(1,0)	(1,0)	(1,0)	
L1D -493>	(1,2)	(168,2)	(1,0)	(1,0)	(1,0)	(1,0)	(1,0)	(1,0)	(1,0)	(1,0)	(1,0)	(1,0)	(1,0)	(1,0)	(1,0)	(1,0)	
L1D -492>	(168,1)	(1,1)	(1,0)	(1,0)	(1,0)	(1,0)	(1,0)	(1,0)	(1,0)	(1,0)	(1,0)	(1,0)	(1,0)	(1,0)	(1,0)	(1,0)	
L1D -491>	(0,1)	(168,1)	(1,0)	(1,0)	(1,0)	(1,0)	(1,0)	(1,0)	(1,0)	(1,0)	(1,0)	(1,0)	(1,0)	(1,0)	(1,0)	(1,0)	
L1D -490>	(0,1)	(1,0)	(1,0)	(1,0)	(1,0)	(1,0)	(1,0)	(1,0)	(1,0)	(1,0)	(1,0)	(1,0)	(1,0)	(1,0)	(1,0)	(1,0)	
L1D -489>	(2,1)	(1,1)	(1,0)	(1,0)	(1,0)	(1,0)	(1,0)	(1,0)	(1,0)	(1,0)	(1,0)	(1,0)	(1,0)	(1,0)	(1,0)	(1,0)	
L1D -488>	(1,0)	(1,0)	(1,0)	(1,0)	(1,0)	(1,0)	(1,0)	(1,0)	(1,0)	(1,0)	(1,0)	(1,0)	(1,0)	(1,0)	(1,0)	(1,0)	
L1D -487>	(1,0)	(1,0)	(1,0)	(1,0)	(1,0)	(1,0)	(1,0)	(1,0)	(1,0)	(1,0)	(1,0)	(1,0)	(1,0)	(1,0)	(1,0)	(1,0)	
L1D -486>	(0,1)	(1,0)	(1,0)	(1,0)	(1,0)	(1,0)	(1,0)	(1,0)	(1,0)	(1,0)	(1,0)	(1,0)	(1,0)	(1,0)	(1,0)	(1,0)	
L1D -485>	(168,1)	(1,0)	(1,0)	(1,0)	(1,0)	(1,0)	(1,0)	(1,0)	(1,0)	(1,0)	(1,0)	(1,0)	(1,0)	(1,0)	(1,0)	(1,0)	
L1D -484>	(168,1)	(169,1)	(1,0)	(1,0)	(1,0)	(1,0)	(1,0)	(1,0)	(1,0)	(1,0)	(1,0)	(1,0)	(1,0)	(1,0)	(1,0)	(1,0)	
L1D -483>	(1,0)	(1,0)	(1,0)	(1,0)	(1,0)	(1,0)	(1,0)	(1,0)	(1,0)	(1,0)	(1,0)	(1,0)	(1,0)	(1,0)	(1,0)	(1,0)	
L1D -482>	(1,0)	(1,0)	(1,0)	(1,0)	(1,0)	(1,0)	(1,0)	(1,0)	(1,0)	(1,0)	(1,0)	(1,0)	(1,0)	(1,0)	(1,0)	(1,0)	
L1D -481>	(1,0)	(1,0)	(1,0)	(1,0)	(1,0)	(1,0)	(1,0)	(1,0)	(1,0)	(1,0)	(1,0)	(1,0)	(1,0)	(1,0)	(1,0)	(1,0)	
L1D -480>	(1,0)	(1,0)	(1,0)	(1,0)	(1,0)	(1,0)	(1,0)	(1,0)	(1,0)	(1,0)	(1,0)	(1,0)	(1,0)	(1,0)	(1,0)	(1,0)	
L1D -479>	(1,0)	(1,0)	(1,0)	(1,0)	(1,0)	(1,0)	(1,0)	(1,0)	(1,0)	(1,0)	(1,0)	(1,0)	(1,0)	(1,0)	(1,0)	(1,0)	
L1D -478>	(160,7)	(0,10)	(3,8)	(1,0)	(1,0)	(1,0)	(1,0)	(1,0)	(1,0)	(1,0)	(1,0)	(1,0)	(1,0)	(1,0)	(1,0)	(1,0)	
L1D -477>	(0,1)	(1,0)	(1,0)	(1,0)	(1,0)	(1,0)	(1,0)	(1,0)	(1,0)	(1,0)	(1,0)	(1,0)	(1,0)	(1,0)	(1,0)	(1,0)	
L1D -476>	(1,0)	(1,0)	(1,0)	(1,0)	(1,0)	(1,0)	(1,0)	(1,0)	(1,0)	(1,0)	(1,0)	(1,0)	(1,0)	(1,0)	(1,0)	(1,0)	
L1D -475>	(168,1)	(0,2)	(-1,2)	(1,0)	(1,0)	(1,0)	(1,0)	(1,0)	(1,0)	(1,0)	(1,0)	(1,0)	(1,0)	(1,0)	(1,0)	(1,0)	
L1D -474>	(1,0)	(1,0)	(1,0)	(1,0)	(1,0)	(1,0)	(1,0)	(1,0)	(1,0)	(1,0)	(1,0)	(1,0)	(1,0)	(1,0)	(1,0)	(1,0)	
L1D -473>	(168,1)	(1,0)	(1,0)	(1,0)	(1,0)	(1,0)	(1,0)	(1,0)	(1,0)	(1,0)	(1,0)	(1,0)	(1,0)	(1,0)	(1,0)	(1,0)	
L1D -472>	(1,0)	(1,0)	(1,0)	(1,0)	(1,0)	(1,0)	(1,0)	(1,0)	(1,0)	(1,0)	(1,0)	(1,0)	(1,0)	(1,0)	(1,0)	(1,0)	
L1D -471>	(1,0)	(1,0)	(1,0)	(1,0)	(1,0)	(1,0)	(1,0)	(1,0)	(1,0)	(1,0)	(1,0)	(1,0)	(1,0)	(1,0)	(1,0)	(1,0)	
L1D -470>	(1,0)	(1,0)	(1,0)	(1,0)	(1,0)	(1,0)	(1,0)	(1,0)	(1,0)	(1,0)	(1,0)	(1,0)	(1,0)	(1,0)	(1,0)	(1,0)	
L1D -469>	(1,0)	(1,0)	(1,0)	(1,0)	(1,0)	(1,0)	(1,0)	(1,0)	(1,0)	(1,0)	(1,0)	(1,0)	(1,0)	(1,0)	(1,0)	(1,0)	
L1D -468>	(1,0)	(1,0)	(1,0)	(1,0)	(1,0)	(1,0)	(1,0)	(1,0)	(1,0)	(1,0)	(1,0)	(1,0)	(1,0)	(1,0)	(1,0)	(1,0)	
L1D -467>	(1,0)	(1,0)	(1,0)	(1,0)	(1,0)	(1,0)	(1,0)	(1,0)	(1,0)	(1,0)	(1,0)	(1,0)	(1,0)	(1,0)	(1,0)	(1,0)	
L1D -466>	(1,0)	(1,0)	(1,0)	(1,0)	(1,0)	(1,0)	(1,0)	(1,0)	(1,0)	(1,0)	(1,0)	(1,0)	(1,0)	(1,0)	(1,0)	(1,0)	
L1D -465>	(1,0)	(1,0)	(1,0)	(1,0)	(1,0)	(1,0)	(1,0)	(1,0)	(1,0)	(1,0)	(1,0)	(1,0)	(1,0)	(1,0)	(1,0)	(1,0)	
L1D -464>	(168,2)	(1,0)	(1,0)	(1,0)	(1,0)	(1,0)	(1,0)	(1,0)	(1,0)	(1,0)	(1,0)	(1,0)	(1,0)	(1,0)	(1,0)	(1,0)	
L1D -463>	(1,0)	(1,0)	(1,0)	(1,0)	(1,0)	(1,0)	(1,0)	(1,0)	(1,0)	(1,0)	(1,0)	(1,0)	(1,0)	(1,0)	(1,0)	(1,0)	
L1D -462>	(1,0)	(1,0)	(1,0)	(1,0)	(1,0)	(1,0)	(1,0)	(1,0)	(1,0)	(1,0)	(1,0)	(1,0)	(1,0)	(1,0)	(1,0)	(1,0)	
L1D -461>	(1,0)	(1,0)	(1,0)	(1,0)	(1,0)	(1,0)	(1,0)	(1,0)	(1,0)	(1,0)	(1,0)	(1,0)	(1,0)	(1,0)	(1,0)	(1,0)	
L1D -460>	(168,4)	(1,1)	(0,1)	(1,0)	(1,0)	(1,0)	(1,0)	(1,0)	(1,0)	(1,0)	(1,0)	(1,0)	(1,0)	(1,0)	(1,0)	(1,0)	
L1D -459>	(1,0)	(1,0)	(1,0)	(1,0)	(1,0)	(1,0)	(1,0)	(1,0)	(1,0)	(1,0)	(1,0)	(1,0)	(1,0)	(1,0)	(1,0)	(1,0)	
L1D -458>	(1,0)	(1,0)	(1,0)	(1,0)	(1,0)	(1,0)	(1,0)	(1,0)	(1,0)	(1,0)	(1,0)	(1,0)	(1,0)	(1,0)	(1,0)	(1,0)	
L1D -457>	(1,0)	(1,0)	(1,0)	(1,0)	(1,0)	(1,0)	(1,0)	(1,0)	(1,0)	(1,0)	(1,0)	(1,0)	(1,0)	(1,0)	(1,0)	(1,0)	
L1D -456>	(1,0)	(1,0)	(1,0)	(1,0)	(1,0)	(1,0)	(1,0)	(1,0)	(1,0)	(1,0)	(1,0)	(1,0)	(1,0)	(1,0)	(1,0)	(1,0)	
L1D -455>	(168,2)	(1,0)	(1,0)	(1,0)	(1,0)	(1,0)	(1,0)	(1,0)	(1,0)	(1,0)	(1,0)	(1,0)	(1,0)	(1,0)	(1,0)	(1,0)	
L1D -454>	(1,0)	(1,0)	(1,0)	(1,0)	(1,0)	(1,0)	(1,0)	(1,0)	(1,0)	(1,0)	(1,0)	(1,0)	(1,0)	(1,0)	(1,0)	(1,0)	
L1D -453>	(1,0)	(1,0)	(1,0)	(1,0)	(1,0)	(1,0)	(1,0)	(1,0)	(1,0)	(1,0)	(1,0)	(1,0)	(1,0)	(1,0)	(1,0)	(1,0)	
L1D -452>	(403,1)	(1,0)	(1,0)	(1,0)	(1,0)	(1,0)	(1,0)	(1,0)	(1,0)	(1,0)	(1,0)	(1,0)	(1,0)	(1,0)	(1,0)	(1,0)	
L1D -451>	(1,0)	(1,0)	(1,0)	(1,0)	(1,0)	(1,0)	(1,0)	(1,0)	(1,0)	(1,0)	(1,0)	(1,0)	(1,0)	(1,0)	(1,0)	(1,0)	
L1D -450>	(168,4)	(1,1)	(1,0)	(1,0)	(1,0)	(1,0)	(1,0)	(1,0)	(1,0)	(1,0)	(1,0)	(1,0)	(1,0)	(1,0)	(1,0)	(1,0)	
L1D -449>	(1,0)	(1,0)	(1,0)	(1,0)	(1,0)	(1,0)	(1,0)	(1,0)	(1,0)	(1,0)	(1,0)	(1,0)	(1,0)	(1,0)	(1,0)	(1,0)	
L1D -448>	(167,1)	(1,0)	(1,0)	(1,0)	(1,0)	(1,0)	(1,0)	(1,0)	(1,0)	(1,0)	(1,0)	(1,0)	(1,0)	(1,0)	(1,0)	(1,0)	
L1D -447>	(168,1)	(1,0)	(1,0)	(1,0)	(1,0)	(1,0)	(1,0)	(1,0)	(1,0)	(1,0)	(1,0)	(1,0)	(1,0)	(1,0)	(1,0)	(1,0)	
L1D -446>	(168,1)	(1,0)	(1,0)	(1,0)	(1,0)	(1,0)	(1,0)	(1,0)	(1,0)	(1,0)	(1,0)	(1,0)	(1,0)	(1,0)	(1,0)	(1,0)	
L1D -445>	(1,0)	(1,0)	(1,0)	(1,0)	(1,0)	(1,0)	(1,0)	(1,0)	(1,0)	(1,0)	(1,0)	(1,0)	(1,0)	(1,0)	(1,0)	(1,0)	
L1D -444>	(1,0)	(1,0)	(1,0)	(1,0)	(1,0)	(1,0)	(1,0)	(1,0)	(1,0)	(1,0)	(1,0)	(1,0)	(1,0)	(1,0)	(1,0)	(1,0)	
L1D -443>	(1,0)	(1,0)	(1,0)	(1,0)	(1,0)	(1,0)	(1,0)	(1,0)	(1,0)	(1,0)	(1,0)	(1,0)	(1,0)	(1,0)	(1,0)	(1,0)	
L1D -442>	(168,1)	(1,0)	(1,0)	(1,0)	(1,0)	(1,0)	(1,0)	(1,0)	(1,0)	(1,0)	(1,0)	(1,0)	(1,0)	(1,0)	(1,0)	(1,0)	
L1D -441>	(1,0)	(1,0)	(1,0)	(1,0)	(1,0)	(1,0)	(1,0)	(1,0)	(1,0)	(1,0)	(1,0)	(1,0)	(1,0)	(1,0)	(1,0)	(1,0)	
L1D -440>	(0,1)	(1,0)	(1,0)	(1,0)	(1,0)	(1,0)	(1,0)	(1,0)	(1,0)	(1,0)	(1,0)	(1,0)	(1,0)	(1,0)	(1,0)	(1,0)	
L1D -439>	(1,0)	(1,0)	(1,0)	(1,0)	(1,0)	(1,0)	(1,0)	(1,0)	(1,0)	(1,0)	(1,0)	(1,0)	(1,0)	(1,0)	(1,0)	(1,0)	
L1D -438>	(1,0)	(1,0)	(1,0)	(1,0)	(1,0)	(1,0)	(1,0)	(1,0)	(1,0)	(1,0)	(1,0)	(1,0)	(1,0)	(1,0)	(1,0)	(1,0)	
L1D -437>	(168,2)	(1,0)	(1,0)	(1,0)	(1,0)	(1,0)	(1,0)	(1,0)	(1,0)	(1,0)	(1,0)	(1,0)	(1,0)	(1,0)	(1,0)	(1,0)	
L1D -436>	(168,1)	(2,1)	(1,0)	(1,0)	(1,0)	(1,0)	(1,0)	(1,0)	(1,0)	(1,0)	(1,0)	(1,0)	(1,0)	(1,0)	(1,0)	(1,0)	
L1D -435>	(168,1)	(1,0)	(1,0)	(1,0)	(1,0)	(1,0)	(1,0)	(1,0)	(1,0)	(1,0)	(1,0)	(1,0)	(1,0)	(1,0)	(1,0)	(1,0)	
L1D -434>	(1,0)	(1,0)	(1,0)	(1,0)	(1,0)	(1,0)	(1,0)	(1,0)	(1,0)	(1,0)	(1,0)	(1,0)	(1,0)	(1,0)	(1,0)	(1,0)	
L1D -433>	(1,0)	(1,0)	(1,0)	(1,0)	(1,0)	(1,0)	(1,0)	(1,0)	(1,0)	(1,0)	(1,0)	(1,0)	(1,0)	(1,0)	(1,0)	(1,0)	
L1D -432>	(0,1)	(168,2)	(1,0)	(1,0)	(1,0)	(1,0)	(1,0)	(1,0)	(1,0)	(1,0)	(1,0)	(1,0)	(1,0)	(1,0)	(1,0)	(1,0)	
L1D -431>	(1,0)	(1,0)	(1,0)	(1,0)	(1,0)	(1,0)	(1,0)	(1,0)	(1,0)	(1,0)	(1,0)	(1,0)	(1,0)	(1,0)	(1,0)	(1,0)	
L1D -430>	(1,0)	(1,0)	(1,0)	(1,0)	(1,0)	(1,0)	(1,0)	(1,0)	(1,0)	(1,0)	(1,0)	(1,0)	(1,0)	(1,0)	(1,0)	(1,0)	
L1D -429>	(1,0)	(1,0)	(1,0)	(1,0)	(1,0)	(1,0)	(1,0)	(1,0)	(1,0)	(1,0)	(1,0)	(1,0)	(1,0)	(1,0)	(1,0)	(1,0)	
L1D -428>	(1,0)	(1,0)	(1,0)	(1,0)	(1,0)	(1,0)	(1,0)	(1,0)	(1,0)	(1,0)	(1,0)	(1,0)	(1,0)	(1,0)	(1,0)	(1,0)	
L1D -427>	(1,0)	(1,0)	(1,0)	(1,0)	(1,0)	(1,0)	(1,0)	(1,0)	(1,0)	(1,0)	(1,0)	(1,0)	(1,0)	(1,0)	(1,0)	(1,0)	
L1D -426>	(1,0)	(1,0)	(1,0)	(1,0)	(1,0)	(1,0)	(1,0)	(1,0)	(1,0)	(1,0)	(1,0)	(1,0)	(1,0)	(1,0)	(1,0)	(1,0)	
L1D -425>	(1,0)	(1,0)	(1,0)	(1,0)	(1,0)	(1,0)	(1,0)	(1,0)	(1,0)	(1,0)	(1,0)	(1,0)	(1,0)	(1,0)	(1,0)	(1,0)	
L1D -424>	(0,1)	(1,0)	(1,0)	(1,0)	(1,0)	(1,0)	(1,0)	(1,0)	(1,0)	(1,0)	(1,0)	(1,0)	(1,0)	(1,0)	(1,0)	(1,0)	
L1D -423>	(207,5)	(1,0)	(1,0)	(1,0)	(1,0)	(1,0)	(1,0)	(1,0)	(1,0)	(1,0)	(1,0)	(1,0)	(1,0)	(1,0)	(1,0)	(1,0)	
L1D -422>	(1,0)	(1,0)	(1,0)	(1,0)	(1,0)	(1,0)	(1,0)	(1,0)	(1,0)	(1,0)	(1,0)	(1,0)	(1,0)	(1,0)	(1,0)	(1,0)	
L1D -421>	(207,4)	(1,4)	(168,1)	(1,0)	(1,0)	(1,0)	(1,0)	(1,0)	(1,0)	(1,0)	(1,0)	(1,0)	(1,0)	(1,0)	(1,0)	(1,0)	
L1D -420>	(84,5)	(1,47)	(0,2)	(1,0)	(1,0)	(1,0)	(1,0)	(1,0)	(1,0)	(1,0)	(1,0)	(1,0)	(1,0)	(1,0)	(1,0)	(1,0)	
L1D -419>	(0,24)	(1,4)	(84,108)	(168,10)	(252,3)	(1,0)	(1,0)	(1,0)	(1,0)	(1,0)	(1,0)	(1,0)	(1,0)	(1,0)	(1,0)	(1,0)	
L1D -418>	(1,2)	(0,2)	(1,0)	(1,0)	(1,0)	(1,0)	(1,0)	(1,0)	(1,0)	(1,0)	(1,0)	(1,0)	(1,0)	(1,0)	(1,0)	(1,0)	
L1D -417>	(207,53)	(1,0)	(1,0)	(1,0)	(1,0)	(1,0)	(1,0)	(1,0)	(1,0)	(1,0)	(1,0)	(1,0)	(1,0)	(1,0)	(1,0)	(1,0)	
L1D -416>	(207,12)	(0,1)	(1,0)	(1,0)	(1,0)	(1,0)	(1,0)	(1,0)	(1,0)	(1,0)	(1,0)	(1,0)	(1,0)	(1,0)	(1,0)	(1,0)	
L1D -415>	(1,0)	(1,0)	(1,0)	(1,0)	(1,0)	(1,0)	(1,0)	(1,0)	(1,0)	(1,0)	(1,0)	(1,0)	(1,0)	(1,0)	(1,0)	(1,0)	
L1D -414>	(1,0)	(1,0)	(1,0)	(1,0)	(1,0)	(1,0)	(1,0)	(1,0)	(1,0)	(1,0)	(1,0)	(1,0)	(1,0)	(1,0)	(1,0)	(1,0)	
L1D -413>	(1,0)	(1,0)	(1,0)	(1,0)	(1,0)	(1,0)	(1,0)	(1,0)	(1,0)	(1,0)	(1,0)	(1,0)	(1,0)	(1,0)	(1,0)	(1,0)	
L1D -412>	(1,0)	(1,0)	(1,0)	(1,0)	(1,0)	(1,0)	(1,0)	(1,0)	(1,0)	(1,0)	(1,0)	(1,0)	(1,0)	(1,0)	(1,0)	(1,0)	
L1D -411>	(1,0)	(1,0)	(1,0)	(1,0)	(1,0)	(1,0)	(1,0)	(1,0)	(1,0)	(1,0)	(1,0)	(1,0)	(1,0)	(1,0)	(1,0)	(1,0)	
L1D -410>	(1,0)	(1,0)	(1,0)	(1,0)	(1,0)	(1,0)	(1,0)	(1,0)	(1,0)	(1,0)	(1,0)	(1,0)	(1,0)	(1,0)	(1,0)	(1,0)	
L1D -409>	(1,0)	(1,0)	(1,0)	(1,0)	(1,0)	(1,0)	(1,0)	(1,0)	(1,0)	(1,0)	(1,0)	(1,0)	(1,0)	(1,0)	(1,0)	(1,0)	
L1D -408>	(1,0)	(1,0)	(1,0)	(1,0)	(1,0)	(1,0)	(1,0)	(1,0)	(1,0)	(1,0)	(1,0)	(1,0)	(1,0)	(1,0)	(1,0)	(1,0)	
L1D -407>	(1,0)	(1,0)	(1,0)	(1,0)	(1,0)	(1,0)	(1,0)	(1,0)	(1,0)	(1,0)	(1,0)	(1,0)	(1,0)	(1,0)	(1,0)	(1,0)	
L1D -406>	(1,0)	(1,0)	(1,0)	(1,0)	(1,0)	(1,0)	(1,0)	(1,0)	(1,0)	(1,0)	(1,0)	(1,0)	(1,0)	(1,0)	(1,0)	(1,0)	
L1D -405>	(207,21)	(403,16)	(1,0)	(1,0)	(1,0)	(1,0)	(1,0)	(1,0)	(1,0)	(1,0)	(1,0)	(1,0)	(1,0)	(1,0)	(1,0)	(1,0)	
L1D -404>	(207,9)	(168,3)	(12,1)	(1,0)	(1,0)	(1,0)	(1,0)	(1,0)	(1,0)	(1,0)	(1,0)	(1,0)	(1,0)	(1,0)	(1,0)	(1,0)	
L1D -403>	(403,118)	(207,3)	(2,1)	(168,3)	(1,0)	(1,0)	(1,0)	(1,0)	(1,0)	(1,0)	(1,0)	(1,0)	(1,0)	(1,0)	(1,0)	(1,0)	
L1D -402>	(1,0)	(1,0)	(1,0)	(1,0)	(1,0)	(1,0)	(1,0)	(1,0)	(1,0)	(1,0)	(1,0)	(1,0)	(1,0)	(1,0)	(1,0)	(1,0)	
L1D -401>	(168,1)	(1,0)	(1,0)	(1,0)	(1,0)	(1,0)	(1,0)	(1,0)	(1,0)	(1,0)	(1,0)	(1,0)	(1,0)	(1,0)	(1,0)	(1,0)	
L1D -400>	(1,0)	(1,0)	(1,0)	(1,0)	(1,0)	(1,0)	(1,0)	(1,0)	(1,0)	(1,0)	(1,0)	(1,0)	(1,0)	(1,0)	(1,0)	(1,0)	
L1D -399>	(0,1)	(1,0)	(1,0)	(1,0)	(1,0)	(1,0)	(1,0)	(1,0)	(1,0)	(1,0)	(1,0)	(1,0)	(1,0)	(1,0)	(1,0)	(1,0)	
L1D -398>	(1,0)	(1,0)	(1,0)	(1,0)	(1,0)	(1,0)	(1,0)	(1,0)	(1,0)	(1,0)	(1,0)	(1,0)	(1,0)	(1,0)	(1,0)	(1,0)	
L1D -397>	(1,0)	(1,0)	(1,0)	(1,0)	(1,0)	(1,0)	(1,0)	(1,0)	(1,0)	(1,0)	(1,0)	(1,0)	(1,0)	(1,0)	(1,0)	(1,0)	
L1D -396>	(1,0)	(1,0)	(1,0)	(1,0)	(1,0)	(1,0)	(1,0)	(1,0)	(1,0)	(1,0)	(1,0)	(1,0)	(1,0)	(1,0)	(1,0)	(1,0)	
L1D -395>	(1,0)	(1,0)	(1,0)	(1,0)	(1,0)	(1,0)	(1,0)	(1,0)	(1,0)	(1,0)	(1,0)	(1,0)	(1,0)	(1,0)	(1,0)	(1,0)	
L1D -394>	(1,0)	(1,0)	(1,0)	(1,0)	(1,0)	(1,0)	(1,0)	(1,0)	(1,0)	(1,0)	(1,0)	(1,0)	(1,0)	(1,0)	(1,0)	(1,0)	
L1D -393>	(168,1)	(1,0)	(1,0)	(1,0)	(1,0)	(1,0)	(1,0)	(1,0)	(1,0)	(1,0)	(1,0)	(1,0)	(1,0)	(1,0)	(1,0)	(1,0)	
L1D -392>	(52,72)	(168,0)	(1,0)	(1,0)	(1,0)	(1,0)	(1,0)	(1,0)	(1,0)	(1,0)	(1,0)	(1,0)	(1,0)	(1,0)	(1,0)	(1,0)	
L1D -391>	(1,0)	(1,0)	(1,0)	(1,0)	(1,0)	(1,0)	(1,0)	(1,0)	(1,0)	(1,0)	(1,0)	(1,0)	(1,0)	(1,0)	(1,0)	(1,0)	
L1D -390>	(1,0)	(1,0)	(1,0)	(1,0)	(1,0)	(1,0)	(1,0)	(1,0)	(1,0)	(1,0)	(1,0)	(1,0)	(1,0)	(1,0)	(1,0)	(1,0)	
L1D -389>	(398,3)	(400,2)	(399,9)	(397,3)	(396,2)	(395,1)	(1,0)	(1,0)	(1,0)	(1,0)	(1,0)	(1,0)	(1,0)	(1,0)	(1,0)	(1,0)	
L1D -388>	(219,1)	(36,6)	(360,25)	(43,9)	(1,0)	(1,0)	(1,0)	(1,0)	(1,0)	(1,0)	(1,0)	(1,0)	(1,0)	(1,0)	(1,0)	(1,0)	
L1D -387>	(1,0)	(1,0)	(1,0)	(1,0)	(1,0)	(1,0)	(1,0)	(1,0)	(1,0)	(1,0)	(1,0)	(1,0)	(1,0)	(1,0)	(1,0)	(1,0)	
L1D -386>	(1,0)	(1,0)	(1,0)	(1,0)	(1,0)	(1,0)	(1,0)	(1,0)	(1,0)	(1,0)	(1,0)	(1,0)	(1,0)	(1,0)	(1,0)	(1,0)	
L1D -385>	(398,2)	(399,2)	(397,5)	(1,0)	(1,0)	(1,0)	(1,0)	(1,0)	(1,0)	(1,0)	(1,0)	(1,0)	(1,0)	(1,0)	(1,0)	(1,0)	
L1D -384>	(1,0)	(1,0)	(1,0)	(1,0)	(1,0)	(1,0)	(1,0)	(1,0)	(1,0)	(1,0)	(1,0)	(1,0)	(1,0)	(1,0)	(1,0)	(1,0)	
L1D -383>	(355,14)	(1,0)	(1,0)	(1,0)	(1,0)	(1,0)	(1,0)	(1,0)	(1,0)	(1,0)	(1,0)	(1,0)	(1,0)	(1,0)	(1,0)	(1,0)	
L1D -382>	(1,0)	(1,0)	(1,0)	(1,0)	(1,0)	(1,0)	(1,0)	(1,0)	(1,0)	(1,0)	(1,0)	(1,0)	(1,0)	(1,0)	(1,0)	(1,0)	
L1D -381>	(1,0)	(1,0)	(1,0)	(1,0)	(1,0)	(1,0)	(1,0)	(1,0)	(1,0)	(1,0)	(1,0)	(1,0)	(1,0)	(1,0)	(1,0)	(1,0)	
L1D -380>	(1,0)	(1,0)	(1,0)	(1,0)	(1,0)	(1,0)	(1,0)	(1,0)	(1,0)	(1,0)	(1,0)	(1,0)	(1,0)	(1,0)	(1,0)	(1,0)	
L1D -379>	(1,0)	(1,0)	(1,0)	(1,0)	(1,0)	(1,0)	(1,0)	(1,0)	(1,0)	(1,0)	(1,0)	(1,0)	(1,0)	(1,0)	(1,0)	(1,0)	
L1D -378>	(1,0)	(1,0)	(1,0)	(1,0)	(1,0)	(1,0)	(1,0)	(1,0)	(1,0)	(1,0)	(1,0)	(1,0)	(1,0)	(1,0)	(1,0)	(1,0)	
L1D -377>	(1,0)	(1,0)	(1,0)	(1,0)	(1,0)	(1,0)	(1,0)	(1,0)	(1,0)	(1,0)	(1,0)	(1,0)	(1,0)	(1,0)	(1,0)	(1,0)	
L1D -376>	(1,0)	(1,0)	(1,0)	(1,0)	(1,0)	(1,0)	(1,0)	(1,0)	(1,0)	(1,0)	(1,0)	(1,0)	(1,0)	(1,0)	(1,0)	(1,0)	
L1D -375>	(1,0)	(1,0)	(1,0)	(1,0)	(1,0)	(1,0)	(1,0)	(1,0)	(1,0)	(1,0)	(1,0)	(1,0)	(1,0)	(1,0)	(1,0)	(1,0)	
L1D -374>	(1,0)	(1,0)	(1,0)	(1,0)	(1,0)	(1,0)	(1,0)	(1,0)	(1,0)	(1,0)	(1,0)	(1,0)	(1,0)	(1,0)	(1,0)	(1,0)	
L1D -373>	(1,0)	(1,0)	(1,0)	(1,0)	(1,0)	(1,0)	(1,0)	(1,0)	(1,0)	(1,0)	(1,0)	(1,0)	(1,0)	(1,0)	(1,0)	(1,0)	
L1D -372>	(1,0)	(1,0)	(1,0)	(1,0)	(1,0)	(1,0)	(1,0)	(1,0)	(1,0)	(1,0)	(1,0)	(1,0)	(1,0)	(1,0)	(1,0)	(1,0)	
L1D -371>	(1,0)	(1,0)	(1,0)	(1,0)	(1,0)	(1,0)	(1,0)	(1,0)	(1,0)	(1,0)	(1,0)	(1,0)	(1,0)	(1,0)	(1,0)	(1,0)	
L1D -370>	(1,0)	(1,0)	(1,0)	(1,0)	(1,0)	(1,0)	(1,0)	(1,0)	(1,0)	(1,0)	(1,0)	(1,0)	(1,0)	(1,0)	(1,0)	(1,0)	
L1D -369>	(1,0)	(1,0)	(1,0)	(1,0)	(1,0)	(1,0)	(1,0)	(1,0)	(1,0)	(1,0)	(1,0)	(1,0)	(1,0)	(1,0)	(1,0)	(1,0)	
L1D -368>	(1,0)	(1,0)	(1,0)	(1,0)	(1,0)	(1,0)	(1,0)	(1,0)	(1,0)	(1,0)	(1,0)	(1,0)	(1,0)	(1,0)	(1,0)	(1,0)	
L1D -367>	(1,0)	(1,0)	(1,0)	(1,0)	(1,0)	(1,0)	(1,0)	(1,0)	(1,0)	(1,0)	(1,0)	(1,0)	(1,0)	(1,0)	(1,0)	(1,0)	
L1D -366>	(1,0)	(1,0)	(1,0)	(1,0)	(1,0)	(1,0)	(1,0)	(1,0)	(1,0)	(1,0)	(1,0)	(1,0)	(1,0)	(1,0)	(1,0)	(1,0)	
L1D -365>	(1,0)	(1,0)	(1,0)	(1,0)	(1,0)	(1,0)	(1,0)	(1,0)	(1,0)	(1,0)	(1,0)	(1,0)	(1,0)	(1,0)	(1,0)	(1,0)	
L1D -364>	(1,0)	(1,0)	(1,0)	(1,0)	(1,0)	(1,0)	(1,0)	(1,0)	(1,0)	(1,0)	(1,0)	(1,0)	(1,0)	(1,0)	(1,0)	(1,0)	
L1D -363>	(1,0)	(1,0)	(1,0)	(1,0)	(1,0)	(1,0)	(1,0)	(1,0)	(1,0)	(1,0)	(1,0)	(1,0)	(1,0)	(1,0)	(1,0)	(1,0)	
L1D -362>	(1,0)	(1,0)	(1,0)	(1,0)	(1,0)	(1,0)	(1,0)	(1,0)	(1,0)	(1,0)	(1,0)	(1,0)	(1,0)	(1,0)	(1,0)	(1,0)	
L1D -361>	(1,57)	(1,0)	(1,0)	(1,0)	(1,0)	(1,0)	(1,0)	(1,0)	(1,0)	(1,0)	(1,0)	(1,0)	(1,0)	(1,0)	(1,0)	(1,0)	
L1D -360>	(36,94)	(361,1)	(0,2)	(43,1)	(1,0)	(1,0)	(1,0)	(1,0)	(1,0)	(1,0)	(1,0)	(1,0)	(1,0)	(1,0)	(1,0)	(1,0)	
L1D -359>	(1,0)	(1,0)	(1,0)	(1,0)	(1,0)	(1,0)	(1,0)	(1,0)	(1,0)	(1,0)	(1,0)	(1,0)	(1,0)	(1,0)	(1,0)	(1,0)	
L1D -358>	(1,0)	(1,0)	(1,0)	(1,0)	(1,0)	(1,0)	(1,0)	(1,0)	(1,0)	(1,0)	(1,0)	(1,0)	(1,0)	(1,0)	(1,0)	(1,0)	
L1D -357>	(0,7)	(2,7)	(1,2)	(1,0)	(1,0)	(1,0)	(1,0)	(1,0)	(1,0)	(1,0)	(1,0)	(1,0)	(1,0)	(1,0)	(1,0)	(1,0)	
L1D -356>	(0,48)	(2,31)	(22,1)	(168,2)	(1,1)	(1,0)	(1,0)	(1,0)	(1,0)	(1,0)	(1,0)	(1,0)	(1,0)	(1,0)	(1,0)	(1,0)	
L1D -355>	(399,97)	(-2,2)	(1,0)	(1,0)	(1,0)	(1,0)	(1,0)	(1,0)	(1,0)	(1,0)	(1,0)	(1,0)	(1,0)	(1,0)	(1,0)	(1,0)	
L1D -354>	(0,20)	(2,7)	(-2,2)	(1,0)	(1,0)	(1,0)	(1,0)	(1,0)	(1,0)	(1,0)	(1,0)	(1,0)	(1,0)	(1,0)	(1,0)	(1,0)	
L1D -353>	(1,78)	(1,0)	(1,0)	(1,0)	(1,0)	(1,0)	(1,0)	(1,0)	(1,0)	(1,0)	(1,0)	(1,0)	(1,0)	(1,0)	(1,0)	(1,0)	
L1D -352>	(1,0)	(1,0)	(1,0)	(1,0)	(1,0)	(1,0)	(1,0)	(1,0)	(1,0)	(1,0)	(1,0)	(1,0)	(1,0)	(1,0)	(1,0)	(1,0)	
L1D -351>	(1,0)	(1,0)	(1,0)	(1,0)	(1,0)	(1,0)	(1,0)	(1,0)	(1,0)	(1,0)	(1,0)	(1,0)	(1,0)	(1,0)	(1,0)	(1,0)	
L1D -350>	(1,0)	(1,0)	(1,0)	(1,0)	(1,0)	(1,0)	(1,0)	(1,0)	(1,0)	(1,0)	(1,0)	(1,0)	(1,0)	(1,0)	(1,0)	(1,0)	
L1D -349>	(1,0)	(1,0)	(1,0)	(1,0)	(1,0)	(1,0)	(1,0)	(1,0)	(1,0)	(1,0)	(1,0)	(1,0)	(1,0)	(1,0)	(1,0)	(1,0)	
L1D -348>	(1,104)	(1,0)	(1,0)	(1,0)	(1,0)	(1,0)	(1,0)	(1,0)	(1,0)	(1,0)	(1,0)	(1,0)	(1,0)	(1,0)	(1,0)	(1,0)	
L1D -347>	(1,1)	(1,0)	(1,0)	(1,0)	(1,0)	(1,0)	(1,0)	(1,0)	(1,0)	(1,0)	(1,0)	(1,0)	(1,0)	(1,0)	(1,0)	(1,0)	
L1D -346>	(168,4)	(1,0)	(1,0)	(1,0)	(1,0)	(1,0)	(1,0)	(1,0)	(1,0)	(1,0)	(1,0)	(1,0)	(1,0)	(1,0)	(1,0)	(1,0)	
L1D -345>	(1,0)	(1,0)	(1,0)	(1,0)	(1,0)	(1,0)	(1,0)	(1,0)	(1,0)	(1,0)	(1,0)	(1,0)	(1,0)	(1,0)	(1,0)	(1,0)	
L1D -344>	(1,88)	(168,14)	(2,1)	(1,0)	(1,0)	(1,0)	(1,0)	(1,0)	(1,0)	(1,0)	(1,0)	(1,0)	(1,0)	(1,0)	(1,0)	(1,0)	
L1D -343>	(168,12)	(1,4)	(34,17)	(1,0)	(1,0)	(1,0)	(1,0)	(1,0)	(1,0)	(1,0)	(1,0)	(1,0)	(1,0)	(1,0)	(1,0)	(1,0)	
L1D -342>	(1,126)	(168,5)	(0,0)	(1,0)	(1,0)	(1,0)	(1,0)	(1,0)	(1,0)	(1,0)	(1,0)	(1,0)	(1,0)	(1,0)	(1,0)	(1,0)	
L1D -341>	(1,5)	(168,15)	(2,5)	(6,1)	(1,0)	(1,0)	(1,0)	(1,0)	(1,0)	(1,0)	(1,0)	(1,0)	(1,0)	(1,0)	(1,0)	(1,0)	
L1D -340>	(1,22)	(168,34)	(0,1)	(2,5)	(15,1)	(340,1)	(1,0)	(1,0)	(1,0)	(1,0)	(1,0)	(1,0)	(1,0)	(1,0)	(1,0)	(1,0)	
L1D -339>	(1,29)	(168,103)	(0,3)	(2,9)	(3,1)	(1,0)	(1,0)	(1,0)	(1,0)	(1,0)	(1,0)	(1,0)	(1,0)	(1,0)	(1,0)	(1,0)	
L1D -338>	(1,62)	(168,121)	(15,6)	(336,17)	(2,12)	(0,1)	(1,0)	(1,0)	(1,0)	(1,0)	(1,0)	(1,0)	(1,0)	(1,0)	(1,0)	(1,0)	
L1D -337>	(0,4)	(1,52)	(168,113)	(2,1)	(84,0)	(1,0)	(1,0)	(1,0)	(1,0)	(1,0)	(1,0)	(1,0)	(1,0)	(1,0)	(1,0)	(1,0)	
L1D -336>	(168,89)	(2,0)	(3,0)	(336,0)	(505,0)	(0,7)	(169,0)	(171,0)	(504,0)	(1,12)	(1,0)	(1,0)	(1,0)	(1,0)	(1,0)	(1,0)	
L1D -335>	(168,124)	(0,27)	(-3,0)	(169,1)	(2,3)	(336,0)	(84,0)	(3,5)	(1,20)	(1,0)	(1,0)	(1,0)	(1,0)	(1,0)	(1,0)	(1,0)	
L1D -334>	(168,121)	(1,12)	(0,0)	(3,0)	(84,0)	(169,2)	(2,2)	(336,0)	(1,0)	(1,0)	(1,0)	(1,0)	(1,0)	(1,0)	(1,0)	(1,0)	
L1D -333>	(168,75)	(2,3)	(1,12)	(12,5)	(-17,1)	(0,4)	(14,1)	(-15,0)	(-1,0)	(169,1)	(26,0)	(-2,0)	(-9,1)	(46,0)	(1,0)	(1,0)	
L1D -332>	(-1,5)	(-9,26)	(-8,63)	(14,3)	(1,10)	(168,80)	(2,5)	(0,5)	(166,1)	(169,4)	(-15,1)	(1,0)	(1,0)	(1,0)	(1,0)	(1,0)	
L1D -331>	(1,13)	(0,4)	(168,37)	(12,37)	(-8,16)	(-2,2)	(-9,4)	(-17,4)	(26,8)	(2,3)	(-4,1)	(5,1)	(169,2)	(1,0)	(1,0)	(1,0)	
L1D -330>	(-8,15)	(12,25)	(-9,5)	(168,59)	(1,6)	(2,2)	(-7,1)	(26,5)	(0,4)	(9,1)	(-4,1)	(169,1)	(1,0)	(1,0)	(1,0)	(1,0)	
L1D -329>	(168,22)	(0,1)	(1,4)	(330,4)	(331,4)	(3,1)	(1,0)	(1,0)	(1,0)	(1,0)	(1,0)	(1,0)	(1,0)	(1,0)	(1,0)	(1,0)	
L1D -328>	(168,26)	(0,1)	(79,2)	(1,0)	(1,0)	(1,0)	(1,0)	(1,0)	(1,0)	(1,0)	(1,0)	(1,0)	(1,0)	(1,0)	(1,0)	(1,0)	
L1D -327>	(168,18)	(1,5)	(1,0)	(1,0)	(1,0)	(1,0)	(1,0)	(1,0)	(1,0)	(1,0)	(1,0)	(1,0)	(1,0)	(1,0)	(1,0)	(1,0)	
L1D -326>	(314,45)	(-11,1)	(168,6)	(0,2)	(2,2)	(1,0)	(1,0)	(1,0)	(1,0)	(1,0)	(1,0)	(1,0)	(1,0)	(1,0)	(1,0)	(1,0)	
L1D -325>	(0,3)	(1,3)	(168,10)	(-11,1)	(1,0)	(1,0)	(1,0)	(1,0)	(1,0)	(1,0)	(1,0)	(1,0)	(1,0)	(1,0)	(1,0)	(1,0)	
L1D -324>	(1,6)	(396,2)	(-36,9)	(168,8)	(0,3)	(1,0)	(1,0)	(1,0)	(1,0)	(1,0)	(1,0)	(1,0)	(1,0)	(1,0)	(1,0)	(1,0)	
L1D -323>	(2,1)	(168,3)	(338,1)	(1,0)	(1,0)	(1,0)	(1,0)	(1,0)	(1,0)	(1,0)	(1,0)	(1,0)	(1,0)	(1,0)	(1,0)	(1,0)	
L1D -322>	(1,2)	(2,14)	(1,0)	(1,0)	(1,0)	(1,0)	(1,0)	(1,0)	(1,0)	(1,0)	(1,0)	(1,0)	(1,0)	(1,0)	(1,0)	(1,0)	
L1D -321>	(-4,102)	(168,1)	(365,1)	(1,1)	(1,0)	(1,0)	(1,0)	(1,0)	(1,0)	(1,0)	(1,0)	(1,0)	(1,0)	(1,0)	(1,0)	(1,0)	
L1D -320>	(20,3)	(-4,5)	(1,0)	(1,0)	(1,0)	(1,0)	(1,0)	(1,0)	(1,0)	(1,0)	(1,0)	(1,0)	(1,0)	(1,0)	(1,0)	(1,0)	
L1D -319>	(84,2)	(-9,1)	(347,1)	(1,0)	(1,0)	(1,0)	(1,0)	(1,0)	(1,0)	(1,0)	(1,0)	(1,0)	(1,0)	(1,0)	(1,0)	(1,0)	
L1D -318>	(160,79)	(-2,1)	(168,1)	(159,1)	(0,12)	(3,12)	(1,0)	(1,0)	(1,0)	(1,0)	(1,0)	(1,0)	(1,0)	(1,0)	(1,0)	(1,0)	
L1D -317>	(176,15)	(-6,91)	(317,6)	(-3,1)	(-2,2)	(168,1)	(1,0)	(1,0)	(1,0)	(1,0)	(1,0)	(1,0)	(1,0)	(1,0)	(1,0)	(1,0)	
L1D -316>	(0,2)	(168,4)	(1,1)	(1,0)	(1,0)	(1,0)	(1,0)	(1,0)	(1,0)	(1,0)	(1,0)	(1,0)	(1,0)	(1,0)	(1,0)	(1,0)	
L1D -315>	(-5,1)	(1,0)	(1,0)	(1,0)	(1,0)	(1,0)	(1,0)	(1,0)	(1,0)	(1,0)	(1,0)	(1,0)	(1,0)	(1,0)	(1,0)	(1,0)	
L1D -314>	(0,1)	(147,1)	(1,0)	(1,0)	(1,0)	(1,0)	(1,0)	(1,0)	(1,0)	(1,0)	(1,0)	(1,0)	(1,0)	(1,0)	(1,0)	(1,0)	
L1D -313>	(168,1)	(-20,1)	(1,0)	(1,0)	(1,0)	(1,0)	(1,0)	(1,0)	(1,0)	(1,0)	(1,0)	(1,0)	(1,0)	(1,0)	(1,0)	(1,0)	
L1D -312>	(-20,6)	(20,8)	(1,1)	(1,0)	(1,0)	(1,0)	(1,0)	(1,0)	(1,0)	(1,0)	(1,0)	(1,0)	(1,0)	(1,0)	(1,0)	(1,0)	
L1D -311>	(-20,9)	(0,1)	(-1,3)	(1,0)	(1,0)	(1,0)	(1,0)	(1,0)	(1,0)	(1,0)	(1,0)	(1,0)	(1,0)	(1,0)	(1,0)	(1,0)	
L1D -310>	(-20,32)	(1,0)	(1,0)	(1,0)	(1,0)	(1,0)	(1,0)	(1,0)	(1,0)	(1,0)	(1,0)	(1,0)	(1,0)	(1,0)	(1,0)	(1,0)	
L1D -309>	(-1,105)	(-20,6)	(310,15)	(312,11)	(311,25)	(-16,2)	(29,1)	(309,12)	(313,3)	(-34,2)	(-2,1)	(-3,1)	(-33,1)	(1,0)	(1,0)	(1,0)	
L1D -308>	(143,1)	(168,4)	(1,0)	(1,0)	(1,0)	(1,0)	(1,0)	(1,0)	(1,0)	(1,0)	(1,0)	(1,0)	(1,0)	(1,0)	(1,0)	(1,0)	
L1D -307>	(-25,1)	(138,3)	(-5,4)	(168,1)	(1,0)	(1,0)	(1,0)	(1,0)	(1,0)	(1,0)	(1,0)	(1,0)	(1,0)	(1,0)	(1,0)	(1,0)	
L1D -306>	(0,3)	(168,2)	(143,1)	(138,3)	(1,0)	(1,0)	(1,0)	(1,0)	(1,0)	(1,0)	(1,0)	(1,0)	(1,0)	(1,0)	(1,0)	(1,0)	
L1D -305>	(168,1)	(167,1)	(143,1)	(1,0)	(1,0)	(1,0)	(1,0)	(1,0)	(1,0)	(1,0)	(1,0)	(1,0)	(1,0)	(1,0)	(1,0)	(1,0)	
L1D -304>	(307,41)	(138,1)	(168,4)	(0,1)	(306,2)	(305,2)	(-25,3)	(162,3)	(20,3)	(308,1)	(1,0)	(1,0)	(1,0)	(1,0)	(1,0)	(1,0)	
L1D -303>	(1,0)	(1,0)	(1,0)	(1,0)	(1,0)	(1,0)	(1,0)	(1,0)	(1,0)	(1,0)	(1,0)	(1,0)	(1,0)	(1,0)	(1,0)	(1,0)	
L1D -302>	(1,0)	(1,0)	(1,0)	(1,0)	(1,0)	(1,0)	(1,0)	(1,0)	(1,0)	(1,0)	(1,0)	(1,0)	(1,0)	(1,0)	(1,0)	(1,0)	
L1D -301>	(301,6)	(50,2)	(-3,1)	(1,0)	(1,0)	(1,0)	(1,0)	(1,0)	(1,0)	(1,0)	(1,0)	(1,0)	(1,0)	(1,0)	(1,0)	(1,0)	
L1D -300>	(300,5)	(-5,1)	(50,18)	(-7,1)	(-4,1)	(1,0)	(1,0)	(1,0)	(1,0)	(1,0)	(1,0)	(1,0)	(1,0)	(1,0)	(1,0)	(1,0)	
L1D -299>	(50,1)	(-8,22)	(-26,1)	(300,1)	(16,12)	(134,10)	(-5,2)	(-7,2)	(1,0)	(1,0)	(1,0)	(1,0)	(1,0)	(1,0)	(1,0)	(1,0)	
L1D -298>	(298,1)	(16,60)	(-8,2)	(134,11)	(168,1)	(-2,1)	(1,0)	(1,0)	(1,0)	(1,0)	(1,0)	(1,0)	(1,0)	(1,0)	(1,0)	(1,0)	
L1D -297>	(0,1)	(16,14)	(-8,2)	(-7,2)	(134,9)	(297,1)	(163,1)	(296,1)	(1,0)	(1,0)	(1,0)	(1,0)	(1,0)	(1,0)	(1,0)	(1,0)	
L1D -296>	(20,3)	(-8,15)	(134,14)	(168,2)	(296,15)	(297,3)	(158,12)	(295,2)	(298,1)	(-26,1)	(1,0)	(1,0)	(1,0)	(1,0)	(1,0)	(1,0)	
L1D -295>	(2,1)	(295,5)	(296,2)	(21,1)	(1,0)	(1,0)	(1,0)	(1,0)	(1,0)	(1,0)	(1,0)	(1,0)	(1,0)	(1,0)	(1,0)	(1,0)	
L1D -294>	(0,1)	(-2,1)	(1,0)	(1,0)	(1,0)	(1,0)	(1,0)	(1,0)	(1,0)	(1,0)	(1,0)	(1,0)	(1,0)	(1,0)	(1,0)	(1,0)	
L1D -293>	(293,11)	(29,2)	(30,1)	(0,1)	(168,3)	(1,2)	(-4,1)	(1,0)	(1,0)	(1,0)	(1,0)	(1,0)	(1,0)	(1,0)	(1,0)	(1,0)	
L1D -292>	(292,4)	(-7,4)	(135,1)	(4,2)	(168,12)	(0,1)	(1,1)	(-4,2)	(295,1)	(1,0)	(1,0)	(1,0)	(1,0)	(1,0)	(1,0)	(1,0)	
L1D -291>	(-8,18)	(-26,1)	(-5,6)	(-7,4)	(130,2)	(1,0)	(1,0)	(1,0)	(1,0)	(1,0)	(1,0)	(1,0)	(1,0)	(1,0)	(1,0)	(1,0)	
L1D -290>	(-8,6)	(0,3)	(-7,1)	(291,1)	(1,0)	(1,0)	(1,0)	(1,0)	(1,0)	(1,0)	(1,0)	(1,0)	(1,0)	(1,0)	(1,0)	(1,0)	
L1D -289>	(0,1)	(-7,3)	(168,1)	(159,2)	(-8,2)	(1,0)	(1,0)	(1,0)	(1,0)	(1,0)	(1,0)	(1,0)	(1,0)	(1,0)	(1,0)	(1,0)	
L1D -288>	(0,2)	(20,1)	(154,28)	(-8,16)	(290,4)	(-26,3)	(289,4)	(-28,1)	(168,2)	(130,1)	(292,1)	(1,0)	(1,0)	(1,0)	(1,0)	(1,0)	
L1D -287>	(1,1)	(168,1)	(-59,1)	(139,5)	(1,0)	(1,0)	(1,0)	(1,0)	(1,0)	(1,0)	(1,0)	(1,0)	(1,0)	(1,0)	(1,0)	(1,0)	
L1D -286>	(29,3)	(152,1)	(1,3)	(28,1)	(1,0)	(1,0)	(1,0)	(1,0)	(1,0)	(1,0)	(1,0)	(1,0)	(1,0)	(1,0)	(1,0)	(1,0)	
L1D -285>	(285,2)	(-3,1)	(-2,1)	(168,6)	(1,1)	(1,0)	(1,0)	(1,0)	(1,0)	(1,0)	(1,0)	(1,0)	(1,0)	(1,0)	(1,0)	(1,0)	
L1D -284>	(1,4)	(168,2)	(0,1)	(169,1)	(1,0)	(1,0)	(1,0)	(1,0)	(1,0)	(1,0)	(1,0)	(1,0)	(1,0)	(1,0)	(1,0)	(1,0)	
L1D -283>	(102,1)	(-5,7)	(126,1)	(1,1)	(-8,8)	(168,1)	(1,0)	(1,0)	(1,0)	(1,0)	(1,0)	(1,0)	(1,0)	(1,0)	(1,0)	(1,0)	
L1D -282>	(0,12)	(29,114)	(123,1)	(126,3)	(42,4)	(1,21)	(168,2)	(-8,5)	(150,1)	(1,0)	(1,0)	(1,0)	(1,0)	(1,0)	(1,0)	(1,0)	
L1D -281>	(1,1)	(-7,8)	(-28,1)	(-8,1)	(155,3)	(1,0)	(1,0)	(1,0)	(1,0)	(1,0)	(1,0)	(1,0)	(1,0)	(1,0)	(1,0)	(1,0)	
L1D -280>	(0,14)	(-8,14)	(150,53)	(168,2)	(1,1)	(20,2)	(42,5)	(29,1)	(166,1)	(1,0)	(1,0)	(1,0)	(1,0)	(1,0)	(1,0)	(1,0)	
L1D -279>	(279,12)	(0,1)	(1,0)	(1,0)	(1,0)	(1,0)	(1,0)	(1,0)	(1,0)	(1,0)	(1,0)	(1,0)	(1,0)	(1,0)	(1,0)	(1,0)	
L1D -278>	(-6,3)	(252,98)	(0,49)	(123,25)	(-19,2)	(282,1)	(254,6)	(148,2)	(-2,1)	(1,0)	(1,0)	(1,0)	(1,0)	(1,0)	(1,0)	(1,0)	
L1D -277>	(29,1)	(277,5)	(30,1)	(1,0)	(1,0)	(1,0)	(1,0)	(1,0)	(1,0)	(1,0)	(1,0)	(1,0)	(1,0)	(1,0)	(1,0)	(1,0)	
L1D -276>	(0,105)	(-7,1)	(277,0)	(276,1)	(-35,1)	(161,10)	(252,3)	(123,6)	(-4,3)	(4,1)	(1,0)	(1,0)	(1,0)	(1,0)	(1,0)	(1,0)	
L1D -275>	(-8,3)	(-5,2)	(0,1)	(1,0)	(1,0)	(1,0)	(1,0)	(1,0)	(1,0)	(1,0)	(1,0)	(1,0)	(1,0)	(1,0)	(1,0)	(1,0)	
L1D -274>	(-6,1)	(282,4)	(-7,1)	(252,33)	(0,10)	(256,1)	(1,0)	(1,0)	(1,0)	(1,0)	(1,0)	(1,0)	(1,0)	(1,0)	(1,0)	(1,0)	
L1D -273>	(151,2)	(-7,6)	(1,1)	(1,0)	(1,0)	(1,0)	(1,0)	(1,0)	(1,0)	(1,0)	(1,0)	(1,0)	(1,0)	(1,0)	(1,0)	(1,0)	
L1D -272>	(146,57)	(0,4)	(-8,63)	(-26,7)	(170,10)	(1,0)	(1,0)	(1,0)	(1,0)	(1,0)	(1,0)	(1,0)	(1,0)	(1,0)	(1,0)	(1,0)	
L1D -271>	(271,5)	(1,0)	(1,0)	(1,0)	(1,0)	(1,0)	(1,0)	(1,0)	(1,0)	(1,0)	(1,0)	(1,0)	(1,0)	(1,0)	(1,0)	(1,0)	
L1D -270>	(1,0)	(1,0)	(1,0)	(1,0)	(1,0)	(1,0)	(1,0)	(1,0)	(1,0)	(1,0)	(1,0)	(1,0)	(1,0)	(1,0)	(1,0)	(1,0)	
L1D -269>	(1,0)	(1,0)	(1,0)	(1,0)	(1,0)	(1,0)	(1,0)	(1,0)	(1,0)	(1,0)	(1,0)	(1,0)	(1,0)	(1,0)	(1,0)	(1,0)	
L1D -268>	(-4,4)	(4,1)	(1,0)	(1,0)	(1,0)	(1,0)	(1,0)	(1,0)	(1,0)	(1,0)	(1,0)	(1,0)	(1,0)	(1,0)	(1,0)	(1,0)	
L1D -267>	(0,2)	(-8,5)	(1,0)	(1,0)	(1,0)	(1,0)	(1,0)	(1,0)	(1,0)	(1,0)	(1,0)	(1,0)	(1,0)	(1,0)	(1,0)	(1,0)	
L1D -266>	(0,105)	(1,4)	(274,4)	(-8,4)	(-26,1)	(29,2)	(1,0)	(1,0)	(1,0)	(1,0)	(1,0)	(1,0)	(1,0)	(1,0)	(1,0)	(1,0)	
L1D -265>	(-7,13)	(1,1)	(168,6)	(0,1)	(-5,1)	(1,0)	(1,0)	(1,0)	(1,0)	(1,0)	(1,0)	(1,0)	(1,0)	(1,0)	(1,0)	(1,0)	
L1D -264>	(-8,28)	(166,7)	(142,27)	(168,2)	(-26,1)	(0,2)	(1,0)	(1,0)	(1,0)	(1,0)	(1,0)	(1,0)	(1,0)	(1,0)	(1,0)	(1,0)	
L1D -263>	(263,4)	(-59,2)	(1,0)	(1,0)	(1,0)	(1,0)	(1,0)	(1,0)	(1,0)	(1,0)	(1,0)	(1,0)	(1,0)	(1,0)	(1,0)	(1,0)	
L1D -262>	(164,1)	(1,0)	(1,0)	(1,0)	(1,0)	(1,0)	(1,0)	(1,0)	(1,0)	(1,0)	(1,0)	(1,0)	(1,0)	(1,0)	(1,0)	(1,0)	
L1D -261>	(22,1)	(1,0)	(1,0)	(1,0)	(1,0)	(1,0)	(1,0)	(1,0)	(1,0)	(1,0)	(1,0)	(1,0)	(1,0)	(1,0)	(1,0)	(1,0)	
L1D -260>	(0,10)	(260,3)	(22,1)	(4,1)	(-4,1)	(23,5)	(259,10)	(21,6)	(-5,1)	(20,2)	(1,0)	(1,0)	(1,0)	(1,0)	(1,0)	(1,0)	
L1D -259>	(22,3)	(-8,4)	(1,0)	(1,0)	(1,0)	(1,0)	(1,0)	(1,0)	(1,0)	(1,0)	(1,0)	(1,0)	(1,0)	(1,0)	(1,0)	(1,0)	
L1D -258>	(258,1)	(24,1)	(256,5)	(255,5)	(266,1)	(-8,5)	(20,1)	(1,0)	(1,0)	(1,0)	(1,0)	(1,0)	(1,0)	(1,0)	(1,0)	(1,0)	
L1D -257>	(1,2)	(24,2)	(-7,2)	(-8,1)	(1,0)	(1,0)	(1,0)	(1,0)	(1,0)	(1,0)	(1,0)	(1,0)	(1,0)	(1,0)	(1,0)	(1,0)	
L1D -256>	(-1,28)	(1,1)	(23,6)	(22,9)	(0,4)	(-8,38)	(256,2)	(20,2)	(169,1)	(-26,1)	(21,1)	(1,0)	(1,0)	(1,0)	(1,0)	(1,0)	
L1D -255>	(0,1)	(255,4)	(20,3)	(1,1)	(22,3)	(168,2)	(1,0)	(1,0)	(1,0)	(1,0)	(1,0)	(1,0)	(1,0)	(1,0)	(1,0)	(1,0)	
L1D -254>	(1,2)	(192,11)	(252,4)	(167,1)	(251,2)	(1,0)	(1,0)	(1,0)	(1,0)	(1,0)	(1,0)	(1,0)	(1,0)	(1,0)	(1,0)	(1,0)	
L1D -253>	(0,2)	(1,6)	(23,1)	(79,8)	(1,0)	(1,0)	(1,0)	(1,0)	(1,0)	(1,0)	(1,0)	(1,0)	(1,0)	(1,0)	(1,0)	(1,0)	
L1D -252>	(0,46)	(84,73)	(192,7)	(336,1)	(23,3)	(22,3)	(251,10)	(1,38)	(252,21)	(21,2)	(-1,12)	(3,8)	(168,2)	(-84,15)	(420,1)	(172,1)	
L1D -251>	(84,105)	(0,40)	(85,1)	(168,4)	(-84,3)	(2,1)	(79,1)	(20,2)	(251,1)	(1,0)	(1,0)	(1,0)	(1,0)	(1,0)	(1,0)	(1,0)	
L1D -250>	(-6,1)	(2,3)	(248,2)	(249,1)	(84,6)	(0,2)	(1,2)	(20,2)	(258,3)	(163,1)	(247,4)	(1,0)	(1,0)	(1,0)	(1,0)	(1,0)	
L1D -249>	(256,1)	(23,1)	(22,1)	(84,1)	(1,1)	(42,1)	(1,0)	(1,0)	(1,0)	(1,0)	(1,0)	(1,0)	(1,0)	(1,0)	(1,0)	(1,0)	
L1D -248>	(-1,11)	(0,5)	(22,2)	(1,2)	(21,2)	(23,3)	(42,5)	(85,1)	(20,3)	(84,2)	(248,1)	(1,0)	(1,0)	(1,0)	(1,0)	(1,0)	
L1D -247>	(22,5)	(160,2)	(-1,2)	(247,7)	(20,4)	(-59,1)	(1,0)	(1,0)	(1,0)	(1,0)	(1,0)	(1,0)	(1,0)	(1,0)	(1,0)	(1,0)	
L1D -246>	(159,2)	(245,1)	(122,33)	(243,3)	(1,0)	(1,0)	(1,0)	(1,0)	(1,0)	(1,0)	(1,0)	(1,0)	(1,0)	(1,0)	(1,0)	(1,0)	
L1D -245>	(0,108)	(24,1)	(2,2)	(79,1)	(168,1)	(-103,1)	(1,0)	(1,0)	(1,0)	(1,0)	(1,0)	(1,0)	(1,0)	(1,0)	(1,0)	(1,0)	
L1D -244>	(244,1)	(23,6)	(22,5)	(243,7)	(157,1)	(156,1)	(-1,9)	(21,4)	(20,1)	(168,2)	(1,1)	(1,0)	(1,0)	(1,0)	(1,0)	(1,0)	
L1D -243>	(-6,1)	(251,1)	(250,2)	(22,4)	(20,2)	(-1,1)	(243,1)	(2,2)	(1,0)	(1,0)	(1,0)	(1,0)	(1,0)	(1,0)	(1,0)	(1,0)	
L1D -242>	(127,1)	(250,114)	(239,8)	(242,1)	(155,2)	(2,2)	(0,1)	(240,1)	(1,0)	(1,0)	(1,0)	(1,0)	(1,0)	(1,0)	(1,0)	(1,0)	
L1D -241>	(1,1)	(24,1)	(23,1)	(22,1)	(168,1)	(1,0)	(1,0)	(1,0)	(1,0)	(1,0)	(1,0)	(1,0)	(1,0)	(1,0)	(1,0)	(1,0)	
L1D -240>	(-17,1)	(23,13)	(22,4)	(153,2)	(-1,8)	(-20,2)	(0,2)	(21,2)	(1,0)	(1,0)	(1,0)	(1,0)	(1,0)	(1,0)	(1,0)	(1,0)	
L1D -239>	(236,1)	(22,4)	(239,5)	(1,2)	(-21,11)	(-22,2)	(168,1)	(-20,1)	(20,2)	(1,0)	(1,0)	(1,0)	(1,0)	(1,0)	(1,0)	(1,0)	
L1D -238>	(238,1)	(-23,1)	(236,4)	(151,2)	(127,3)	(168,1)	(235,1)	(20,1)	(1,0)	(1,0)	(1,0)	(1,0)	(1,0)	(1,0)	(1,0)	(1,0)	
L1D -237>	(-23,26)	(-22,3)	(7,1)	(2,2)	(245,1)	(22,2)	(168,1)	(1,0)	(1,0)	(1,0)	(1,0)	(1,0)	(1,0)	(1,0)	(1,0)	(1,0)	
L1D -236>	(-20,1)	(23,6)	(22,4)	(236,2)	(235,4)	(0,2)	(149,2)	(20,3)	(-1,1)	(21,3)	(168,3)	(-21,1)	(1,0)	(1,0)	(1,0)	(1,0)	
L1D -235>	(-21,16)	(0,47)	(-18,2)	(-24,1)	(22,4)	(20,4)	(148,1)	(-22,2)	(-20,1)	(1,1)	(1,0)	(1,0)	(1,0)	(1,0)	(1,0)	(1,0)	
L1D -234>	(-22,1)	(-24,2)	(234,1)	(242,4)	(1,2)	(2,2)	(232,3)	(231,4)	(233,1)	(0,4)	(1,0)	(1,0)	(1,0)	(1,0)	(1,0)	(1,0)	
L1D -233>	(-23,20)	(23,4)	(-22,2)	(234,1)	(-24,1)	(0,5)	(7,1)	(22,1)	(1,0)	(1,0)	(1,0)	(1,0)	(1,0)	(1,0)	(1,0)	(1,0)	
L1D -232>	(-1,3)	(23,6)	(22,5)	(0,6)	(-20,3)	(1,2)	(21,1)	(20,2)	(1,0)	(1,0)	(1,0)	(1,0)	(1,0)	(1,0)	(1,0)	(1,0)	
L1D -231>	(-18,1)	(234,1)	(22,5)	(-1,1)	(-21,20)	(-22,3)	(2,2)	(231,3)	(20,2)	(0,1)	(1,0)	(1,0)	(1,0)	(1,0)	(1,0)	(1,0)	
L1D -230>	(-22,1)	(-23,2)	(143,1)	(24,1)	(23,1)	(229,2)	(227,1)	(1,1)	(228,1)	(1,0)	(1,0)	(1,0)	(1,0)	(1,0)	(1,0)	(1,0)	
L1D -229>	(-23,28)	(-24,1)	(2,2)	(237,2)	(-22,1)	(1,0)	(1,0)	(1,0)	(1,0)	(1,0)	(1,0)	(1,0)	(1,0)	(1,0)	(1,0)	(1,0)	
L1D -228>	(228,1)	(23,2)	(22,2)	(227,7)	(21,7)	(20,2)	(141,2)	(-20,1)	(-1,4)	(140,1)	(1,0)	(1,0)	(1,0)	(1,0)	(1,0)	(1,0)	
L1D -227>	(0,1)	(227,2)	(22,2)	(20,5)	(-21,14)	(140,1)	(-1,2)	(-22,1)	(1,0)	(1,0)	(1,0)	(1,0)	(1,0)	(1,0)	(1,0)	(1,0)	
L1D -226>	(-23,3)	(224,3)	(-24,1)	(234,3)	(223,6)	(139,2)	(2,2)	(168,3)	(1,0)	(1,0)	(1,0)	(1,0)	(1,0)	(1,0)	(1,0)	(1,0)	
L1D -225>	(-23,19)	(-22,2)	(-24,1)	(1,0)	(1,0)	(1,0)	(1,0)	(1,0)	(1,0)	(1,0)	(1,0)	(1,0)	(1,0)	(1,0)	(1,0)	(1,0)	
L1D -224>	(23,5)	(-1,5)	(137,2)	(-21,1)	(21,2)	(1,0)	(1,0)	(1,0)	(1,0)	(1,0)	(1,0)	(1,0)	(1,0)	(1,0)	(1,0)	(1,0)	
L1D -223>	(-28,1)	(223,8)	(22,5)	(-21,18)	(-1,2)	(1,1)	(20,5)	(0,1)	(-22,3)	(-20,1)	(136,1)	(1,0)	(1,0)	(1,0)	(1,0)	(1,0)	
L1D -222>	(-22,1)	(-23,2)	(-24,2)	(1,1)	(220,3)	(2,2)	(20,1)	(1,0)	(1,0)	(1,0)	(1,0)	(1,0)	(1,0)	(1,0)	(1,0)	(1,0)	
L1D -221>	(-23,32)	(-24,2)	(2,1)	(1,0)	(1,0)	(1,0)	(1,0)	(1,0)	(1,0)	(1,0)	(1,0)	(1,0)	(1,0)	(1,0)	(1,0)	(1,0)	
L1D -220>	(219,13)	(0,3)	(220,3)	(23,6)	(22,3)	(133,2)	(-20,1)	(-1,2)	(21,2)	(20,1)	(-21,1)	(1,0)	(1,0)	(1,0)	(1,0)	(1,0)	
L1D -219>	(-6,1)	(-24,2)	(22,2)	(219,2)	(-21,14)	(132,1)	(23,1)	(-28,1)	(-22,2)	(20,2)	(2,1)	(1,0)	(1,0)	(1,0)	(1,0)	(1,0)	
L1D -218>	(-24,3)	(216,2)	(215,14)	(-7,1)	(0,1)	(131,2)	(2,2)	(38,1)	(1,0)	(1,0)	(1,0)	(1,0)	(1,0)	(1,0)	(1,0)	(1,0)	
L1D -217>	(218,21)	(42,9)	(-23,27)	(399,1)	(1,0)	(1,0)	(1,0)	(1,0)	(1,0)	(1,0)	(1,0)	(1,0)	(1,0)	(1,0)	(1,0)	(1,0)	
L1D -216>	(215,1)	(3,1)	(23,9)	(22,3)	(21,6)	(0,2)	(20,2)	(-1,3)	(42,5)	(129,2)	(1,0)	(1,0)	(1,0)	(1,0)	(1,0)	(1,0)	
L1D -215>	(-84,8)	(215,3)	(46,1)	(63,12)	(64,12)	(66,12)	(65,32)	(-21,12)	(20,4)	(128,2)	(62,4)	(61,5)	(22,3)	(2,1)	(1,0)	(1,0)	
L1D -214>	(0,1)	(127,1)	(-22,1)	(213,1)	(1,0)	(1,0)	(1,0)	(1,0)	(1,0)	(1,0)	(1,0)	(1,0)	(1,0)	(1,0)	(1,0)	(1,0)	
L1D -213>	(7,1)	(-23,23)	(-22,2)	(2,2)	(24,1)	(1,0)	(1,0)	(1,0)	(1,0)	(1,0)	(1,0)	(1,0)	(1,0)	(1,0)	(1,0)	(1,0)	
L1D -212>	(0,2)	(192,34)	(23,6)	(22,1)	(3,16)	(-1,7)	(21,7)	(125,2)	(20,1)	(1,0)	(1,0)	(1,0)	(1,0)	(1,0)	(1,0)	(1,0)	
L1D -211>	(1,2)	(-1,8)	(-24,1)	(22,3)	(-21,10)	(20,3)	(2,2)	(8,1)	(-22,1)	(-20,1)	(215,1)	(0,1)	(1,0)	(1,0)	(1,0)	(1,0)	
L1D -210>	(-23,4)	(-24,3)	(123,1)	(2,2)	(38,3)	(0,1)	(1,1)	(1,0)	(1,0)	(1,0)	(1,0)	(1,0)	(1,0)	(1,0)	(1,0)	(1,0)	
L1D -209>	(-23,22)	(-24,4)	(0,1)	(-1,1)	(38,2)	(1,0)	(1,0)	(1,0)	(1,0)	(1,0)	(1,0)	(1,0)	(1,0)	(1,0)	(1,0)	(1,0)	
L1D -208>	(30,21)	(-1,4)	(-21,1)	(1,1)	(-20,1)	(121,1)	(1,0)	(1,0)	(1,0)	(1,0)	(1,0)	(1,0)	(1,0)	(1,0)	(1,0)	(1,0)	
L1D -207>	(210,71)	(-1,57)	(201,11)	(-21,8)	(3,0)	(-28,0)	(120,1)	(383,1)	(-22,0)	(38,1)	(22,1)	(1,0)	(1,0)	(1,0)	(1,0)	(1,0)	
L1D -206>	(-23,4)	(-29,1)	(119,2)	(-24,2)	(168,1)	(1,0)	(1,0)	(1,0)	(1,0)	(1,0)	(1,0)	(1,0)	(1,0)	(1,0)	(1,0)	(1,0)	
L1D -205>	(-23,30)	(-22,1)	(2,2)	(-24,1)	(1,0)	(1,0)	(1,0)	(1,0)	(1,0)	(1,0)	(1,0)	(1,0)	(1,0)	(1,0)	(1,0)	(1,0)	
L1D -204>	(1,100)	(-20,2)	(3,2)	(117,2)	(1,0)	(1,0)	(1,0)	(1,0)	(1,0)	(1,0)	(1,0)	(1,0)	(1,0)	(1,0)	(1,0)	(1,0)	
L1D -203>	(3,8)	(-21,11)	(-22,2)	(1,7)	(116,2)	(192,8)	(210,1)	(1,0)	(1,0)	(1,0)	(1,0)	(1,0)	(1,0)	(1,0)	(1,0)	(1,0)	
L1D -202>	(-23,2)	(-7,1)	(38,1)	(0,2)	(2,2)	(191,2)	(-22,1)	(115,1)	(1,0)	(1,0)	(1,0)	(1,0)	(1,0)	(1,0)	(1,0)	(1,0)	
L1D -201>	(383,44)	(0,83)	(-1,1)	(-23,30)	(-22,2)	(1,0)	(1,0)	(1,0)	(1,0)	(1,0)	(1,0)	(1,0)	(1,0)	(1,0)	(1,0)	(1,0)	
L1D -200>	(113,1)	(3,1)	(189,1)	(1,0)	(1,0)	(1,0)	(1,0)	(1,0)	(1,0)	(1,0)	(1,0)	(1,0)	(1,0)	(1,0)	(1,0)	(1,0)	
L1D -199>	(-21,14)	(38,1)	(112,1)	(-20,2)	(-28,1)	(-22,1)	(3,1)	(1,0)	(1,0)	(1,0)	(1,0)	(1,0)	(1,0)	(1,0)	(1,0)	(1,0)	
L1D -198>	(-23,3)	(3,1)	(111,1)	(1,0)	(1,0)	(1,0)	(1,0)	(1,0)	(1,0)	(1,0)	(1,0)	(1,0)	(1,0)	(1,0)	(1,0)	(1,0)	
L1D -197>	(1,39)	(6,71)	(-23,31)	(-22,2)	(0,4)	(109,1)	(21,1)	(1,0)	(1,0)	(1,0)	(1,0)	(1,0)	(1,0)	(1,0)	(1,0)	(1,0)	
L1D -196>	(3,8)	(1,0)	(1,0)	(1,0)	(1,0)	(1,0)	(1,0)	(1,0)	(1,0)	(1,0)	(1,0)	(1,0)	(1,0)	(1,0)	(1,0)	(1,0)	
L1D -195>	(-21,11)	(-20,1)	(108,1)	(-8,1)	(1,0)	(1,0)	(1,0)	(1,0)	(1,0)	(1,0)	(1,0)	(1,0)	(1,0)	(1,0)	(1,0)	(1,0)	
L1D -194>	(-23,2)	(-22,1)	(-24,1)	(202,1)	(107,1)	(2,1)	(1,0)	(1,0)	(1,0)	(1,0)	(1,0)	(1,0)	(1,0)	(1,0)	(1,0)	(1,0)	
L1D -193>	(-23,37)	(-22,4)	(-24,2)	(-11,1)	(1,0)	(1,0)	(1,0)	(1,0)	(1,0)	(1,0)	(1,0)	(1,0)	(1,0)	(1,0)	(1,0)	(1,0)	
L1D -192>	(-20,2)	(1,1)	(192,1)	(1,0)	(1,0)	(1,0)	(1,0)	(1,0)	(1,0)	(1,0)	(1,0)	(1,0)	(1,0)	(1,0)	(1,0)	(1,0)	
L1D -191>	(114,1)	(191,126)	(-21,10)	(-22,1)	(2,2)	(-20,2)	(104,1)	(103,1)	(1,0)	(1,0)	(1,0)	(1,0)	(1,0)	(1,0)	(1,0)	(1,0)	
L1D -190>	(194,1)	(-22,3)	(-23,4)	(1,0)	(1,0)	(1,0)	(1,0)	(1,0)	(1,0)	(1,0)	(1,0)	(1,0)	(1,0)	(1,0)	(1,0)	(1,0)	
L1D -189>	(-23,48)	(13,8)	(-11,1)	(189,3)	(2,1)	(1,0)	(1,0)	(1,0)	(1,0)	(1,0)	(1,0)	(1,0)	(1,0)	(1,0)	(1,0)	(1,0)	
L1D -188>	(101,1)	(3,2)	(-11,1)	(1,0)	(1,0)	(1,0)	(1,0)	(1,0)	(1,0)	(1,0)	(1,0)	(1,0)	(1,0)	(1,0)	(1,0)	(1,0)	
L1D -187>	(0,1)	(11,3)	(13,1)	(100,1)	(1,0)	(1,0)	(1,0)	(1,0)	(1,0)	(1,0)	(1,0)	(1,0)	(1,0)	(1,0)	(1,0)	(1,0)	
L1D -186>	(194,5)	(0,1)	(99,1)	(2,1)	(1,0)	(1,0)	(1,0)	(1,0)	(1,0)	(1,0)	(1,0)	(1,0)	(1,0)	(1,0)	(1,0)	(1,0)	
L1D -185>	(-207,24)	(-23,2)	(20,1)	(168,1)	(-11,2)	(1,0)	(1,0)	(1,0)	(1,0)	(1,0)	(1,0)	(1,0)	(1,0)	(1,0)	(1,0)	(1,0)	
L1D -184>	(278,1)	(97,1)	(3,1)	(1,0)	(1,0)	(1,0)	(1,0)	(1,0)	(1,0)	(1,0)	(1,0)	(1,0)	(1,0)	(1,0)	(1,0)	(1,0)	
L1D -183>	(-36,2)	(3,4)	(186,1)	(-1,99)	(-2,1)	(96,1)	(95,1)	(1,0)	(1,0)	(1,0)	(1,0)	(1,0)	(1,0)	(1,0)	(1,0)	(1,0)	
L1D -182>	(-29,1)	(179,1)	(20,1)	(186,1)	(1,0)	(1,0)	(1,0)	(1,0)	(1,0)	(1,0)	(1,0)	(1,0)	(1,0)	(1,0)	(1,0)	(1,0)	
L1D -181>	(5,24)	(-8,1)	(20,4)	(21,1)	(24,1)	(2,1)	(168,1)	(1,0)	(1,0)	(1,0)	(1,0)	(1,0)	(1,0)	(1,0)	(1,0)	(1,0)	
L1D -180>	(127,2)	(20,2)	(24,9)	(8,2)	(93,1)	(1,1)	(21,1)	(1,0)	(1,0)	(1,0)	(1,0)	(1,0)	(1,0)	(1,0)	(1,0)	(1,0)	
L1D -179>	(127,5)	(1,8)	(10,10)	(274,1)	(24,3)	(92,1)	(1,0)	(1,0)	(1,0)	(1,0)	(1,0)	(1,0)	(1,0)	(1,0)	(1,0)	(1,0)	
L1D -178>	(319,2)	(-5,76)	(378,30)	(127,10)	(20,1)	(10,1)	(91,1)	(1,0)	(1,0)	(1,0)	(1,0)	(1,0)	(1,0)	(1,0)	(1,0)	(1,0)	
L1D -177>	(-23,1)	(20,2)	(21,1)	(24,1)	(1,0)	(1,0)	(1,0)	(1,0)	(1,0)	(1,0)	(1,0)	(1,0)	(1,0)	(1,0)	(1,0)	(1,0)	
L1D -176>	(0,1)	(-11,2)	(-5,4)	(9,1)	(24,3)	(21,1)	(1,0)	(1,0)	(1,0)	(1,0)	(1,0)	(1,0)	(1,0)	(1,0)	(1,0)	(1,0)	
L1D -175>	(147,5)	(-140,7)	(0,2)	(168,2)	(10,15)	(20,1)	(1,0)	(1,0)	(1,0)	(1,0)	(1,0)	(1,0)	(1,0)	(1,0)	(1,0)	(1,0)	
L1D -174>	(10,3)	(20,4)	(0,1)	(17,1)	(-7,1)	(9,1)	(1,0)	(1,0)	(1,0)	(1,0)	(1,0)	(1,0)	(1,0)	(1,0)	(1,0)	(1,0)	
L1D -173>	(0,1)	(1,1)	(20,24)	(170,3)	(-23,1)	(24,2)	(8,1)	(1,0)	(1,0)	(1,0)	(1,0)	(1,0)	(1,0)	(1,0)	(1,0)	(1,0)	
L1D -172>	(1,2)	(14,1)	(-9,33)	(17,5)	(21,7)	(20,6)	(24,3)	(168,1)	(1,0)	(1,0)	(1,0)	(1,0)	(1,0)	(1,0)	(1,0)	(1,0)	
L1D -171>	(168,16)	(10,16)	(17,6)	(18,5)	(1,2)	(19,3)	(-1,5)	(21,2)	(20,1)	(0,3)	(306,1)	(-2,1)	(1,0)	(1,0)	(1,0)	(1,0)	
L1D -170>	(1,20)	(0,3)	(168,57)	(2,11)	(10,3)	(20,7)	(-2,1)	(1,0)	(1,0)	(1,0)	(1,0)	(1,0)	(1,0)	(1,0)	(1,0)	(1,0)	
L1D -169>	(0,22)	(1,58)	(168,65)	(-8,0)	(5,0)	(2,2)	(84,2)	(166,4)	(3,0)	(167,0)	(21,2)	(-7,0)	(-23,1)	(24,0)	(-11,1)	(169,1)	
L1D -168>	(168,65)	(166,0)	(252,1)	(336,0)	(-166,0)	(0,11)	(2,2)	(85,0)	(84,6)	(335,0)	(1,16)	(167,3)	(46,0)	(-167,0)	(172,0)	(7,0)	
L1D -167>	(168,89)	(169,1)	(336,7)	(2,2)	(0,25)	(-168,9)	(83,0)	(1,6)	(335,0)	(167,0)	(14,0)	(10,6)	(8,0)	(504,0)	(-336,0)	(298,0)	
L1D -166>	(1,16)	(0,8)	(168,78)	(167,4)	(2,6)	(84,1)	(20,3)	(163,0)	(14,0)	(10,1)	(336,1)	(1,0)	(1,0)	(1,0)	(1,0)	(1,0)	
L1D -165>	(162,64)	(168,20)	(1,8)	(2,2)	(167,1)	(20,7)	(-23,1)	(-11,2)	(24,4)	(3,1)	(0,3)	(1,0)	(1,0)	(1,0)	(1,0)	(1,0)	
L1D -164>	(9,1)	(1,1)	(168,12)	(162,5)	(20,5)	(21,2)	(84,2)	(0,4)	(2,1)	(1,0)	(1,0)	(1,0)	(1,0)	(1,0)	(1,0)	(1,0)	
L1D -163>	(0,3)	(1,8)	(2,1)	(168,4)	(160,6)	(162,2)	(10,46)	(14,1)	(1,0)	(1,0)	(1,0)	(1,0)	(1,0)	(1,0)	(1,0)	(1,0)	
L1D -162>	(-1,1)	(168,11)	(162,3)	(1,1)	(0,3)	(10,4)	(20,3)	(2,1)	(159,1)	(84,2)	(1,0)	(1,0)	(1,0)	(1,0)	(1,0)	(1,0)	
L1D -161>	(168,16)	(130,67)	(-95,1)	(20,6)	(21,3)	(10,1)	(1,1)	(-119,2)	(158,88)	(-23,1)	(-11,1)	(-94,1)	(-168,1)	(2,1)	(1,0)	(1,0)	
L1D -160>	(0,87)	(-2,107)	(20,108)	(122,73)	(39,1)	(-318,7)	(-11,3)	(130,26)	(10,1)	(168,10)	(-9,22)	(158,23)	(21,1)	(3,2)	(2,11)	(162,1)	
L1D -159>	(-43,4)	(0,35)	(2,5)	(130,4)	(-126,7)	(-44,22)	(156,8)	(14,22)	(10,119)	(282,6)	(-2,1)	(20,1)	(168,2)	(13,1)	(1,0)	(1,0)	
L1D -158>	(162,1)	(20,4)	(130,4)	(0,3)	(-43,5)	(155,3)	(2,2)	(160,8)	(-44,14)	(10,17)	(14,6)	(166,2)	(-58,1)	(-2,1)	(1,0)	(1,0)	
L1D -157>	(20,15)	(0,65)	(-43,1)	(154,24)	(-126,0)	(168,0)	(158,0)	(-95,3)	(-11,3)	(-44,2)	(2,1)	(-7,0)	(1,0)	(1,0)	(1,0)	(1,0)	
L1D -156>	(0,3)	(-43,2)	(3,1)	(154,10)	(-44,4)	(39,4)	(1,2)	(20,3)	(21,1)	(168,1)	(2,1)	(1,0)	(1,0)	(1,0)	(1,0)	(1,0)	
L1D -155>	(10,95)	(152,7)	(274,4)	(158,1)	(0,7)	(154,2)	(-44,6)	(-126,1)	(-43,1)	(1,0)	(1,0)	(1,0)	(1,0)	(1,0)	(1,0)	(1,0)	
L1D -154>	(10,10)	(157,1)	(-44,2)	(20,5)	(154,1)	(1,0)	(1,0)	(1,0)	(1,0)	(1,0)	(1,0)	(1,0)	(1,0)	(1,0)	(1,0)	(1,0)	
L1D -153>	(20,0)	(-43,0)	(13,1)	(150,64)	(2,0)	(1,0)	(1,0)	(1,0)	(1,0)	(1,0)	(1,0)	(1,0)	(1,0)	(1,0)	(1,0)	(1,0)	
L1D -152>	(150,74)	(2,2)	(20,1)	(3,1)	(1,0)	(1,0)	(1,0)	(1,0)	(1,0)	(1,0)	(1,0)	(1,0)	(1,0)	(1,0)	(1,0)	(1,0)	
L1D -151>	(10,56)	(266,2)	(2,2)	(148,13)	(-44,1)	(20,1)	(-2,1)	(14,1)	(0,1)	(84,2)	(1,0)	(1,0)	(1,0)	(1,0)	(1,0)	(1,0)	
L1D -150>	(0,5)	(131,9)	(10,6)	(130,2)	(-44,3)	(14,1)	(148,1)	(1,0)	(1,0)	(1,0)	(1,0)	(1,0)	(1,0)	(1,0)	(1,0)	(1,0)	
L1D -149>	(146,107)	(131,29)	(-44,2)	(2,1)	(-7,3)	(20,5)	(130,1)	(-43,1)	(1,0)	(1,0)	(1,0)	(1,0)	(1,0)	(1,0)	(1,0)	(1,0)	
L1D -148>	(4,1)	(146,7)	(131,8)	(130,2)	(2,2)	(-44,3)	(20,2)	(-207,2)	(1,1)	(10,1)	(1,0)	(1,0)	(1,0)	(1,0)	(1,0)	(1,0)	
L1D -147>	(2,1)	(3,1)	(-43,3)	(-1,105)	(14,5)	(10,29)	(131,5)	(144,13)	(25,9)	(146,1)	(130,7)	(-140,16)	(0,3)	(-44,4)	(306,1)	(147,1)	
L1D -146>	(24,5)	(31,1)	(10,2)	(146,11)	(144,4)	(25,19)	(0,6)	(-44,4)	(20,3)	(-43,1)	(130,3)	(38,1)	(131,1)	(1,0)	(1,0)	(1,0)	
L1D -145>	(145,2)	(24,5)	(142,118)	(-43,3)	(-7,6)	(153,3)	(-44,1)	(14,1)	(20,17)	(130,5)	(168,1)	(1,0)	(1,0)	(1,0)	(1,0)	(1,0)	
L1D -144>	(-4,3)	(-44,5)	(20,24)	(142,27)	(21,1)	(-1,1)	(1,2)	(-10,1)	(168,1)	(34,1)	(2,1)	(-211,1)	(-43,1)	(1,0)	(1,0)	(1,0)	
L1D -143>	(-68,84)	(0,3)	(139,1)	(-43,1)	(19,30)	(133,20)	(10,76)	(20,7)	(298,9)	(140,6)	(-44,1)	(14,15)	(13,4)	(-1,1)	(1,0)	(1,0)	
L1D -142>	(-44,2)	(19,43)	(10,3)	(140,2)	(-43,2)	(14,3)	(13,1)	(-183,1)	(-1,1)	(1,0)	(1,0)	(1,0)	(1,0)	(1,0)	(1,0)	(1,0)	
L1D -141>	(-172,2)	(144,1)	(18,14)	(138,86)	(19,14)	(-7,2)	(-44,2)	(0,2)	(21,2)	(-178,1)	(20,3)	(1,0)	(1,0)	(1,0)	(1,0)	(1,0)	
L1D -140>	(287,4)	(138,17)	(9,6)	(-68,5)	(139,14)	(-44,1)	(21,1)	(1,1)	(1,0)	(1,0)	(1,0)	(1,0)	(1,0)	(1,0)	(1,0)	(1,0)	
L1D -139>	(136,6)	(-68,1)	(133,1)	(138,3)	(14,8)	(10,15)	(0,1)	(1,0)	(1,0)	(1,0)	(1,0)	(1,0)	(1,0)	(1,0)	(1,0)	(1,0)	
L1D -138>	(-43,1)	(138,1)	(-8,2)	(0,9)	(136,1)	(14,1)	(10,1)	(-58,1)	(1,0)	(1,0)	(1,0)	(1,0)	(1,0)	(1,0)	(1,0)	(1,0)	
L1D -137>	(-8,64)	(-20,10)	(134,117)	(20,1)	(-44,2)	(-7,1)	(1,0)	(1,0)	(1,0)	(1,0)	(1,0)	(1,0)	(1,0)	(1,0)	(1,0)	(1,0)	
L1D -136>	(1,5)	(134,33)	(1,0)	(1,0)	(1,0)	(1,0)	(1,0)	(1,0)	(1,0)	(1,0)	(1,0)	(1,0)	(1,0)	(1,0)	(1,0)	(1,0)	
L1D -135>	(-2,1)	(132,10)	(10,8)	(14,2)	(1,0)	(1,0)	(1,0)	(1,0)	(1,0)	(1,0)	(1,0)	(1,0)	(1,0)	(1,0)	(1,0)	(1,0)	
L1D -134>	(0,3)	(14,1)	(20,1)	(132,1)	(1,0)	(1,0)	(1,0)	(1,0)	(1,0)	(1,0)	(1,0)	(1,0)	(1,0)	(1,0)	(1,0)	(1,0)	
L1D -133>	(20,2)	(-7,3)	(130,83)	(1,0)	(1,0)	(1,0)	(1,0)	(1,0)	(1,0)	(1,0)	(1,0)	(1,0)	(1,0)	(1,0)	(1,0)	(1,0)	
L1D -132>	(1,1)	(2,1)	(130,5)	(-45,1)	(1,0)	(1,0)	(1,0)	(1,0)	(1,0)	(1,0)	(1,0)	(1,0)	(1,0)	(1,0)	(1,0)	(1,0)	
L1D -131>	(130,7)	(128,4)	(14,9)	(10,9)	(1,0)	(1,0)	(1,0)	(1,0)	(1,0)	(1,0)	(1,0)	(1,0)	(1,0)	(1,0)	(1,0)	(1,0)	
L1D -130>	(20,3)	(0,2)	(2,1)	(130,4)	(14,2)	(10,1)	(128,1)	(1,0)	(1,0)	(1,0)	(1,0)	(1,0)	(1,0)	(1,0)	(1,0)	(1,0)	
L1D -129>	(39,16)	(126,49)	(137,3)	(14,1)	(20,2)	(1,0)	(1,0)	(1,0)	(1,0)	(1,0)	(1,0)	(1,0)	(1,0)	(1,0)	(1,0)	(1,0)	
L1D -128>	(1,22)	(31,17)	(126,10)	(282,1)	(1,0)	(1,0)	(1,0)	(1,0)	(1,0)	(1,0)	(1,0)	(1,0)	(1,0)	(1,0)	(1,0)	(1,0)	
L1D -127>	(1,32)	(124,4)	(29,10)	(10,10)	(1,0)	(1,0)	(1,0)	(1,0)	(1,0)	(1,0)	(1,0)	(1,0)	(1,0)	(1,0)	(1,0)	(1,0)	
L1D -126>	(31,113)	(124,97)	(3,8)	(1,52)	(29,2)	(34,126)	(0,2)	(35,1)	(20,2)	(10,3)	(1,0)	(1,0)	(1,0)	(1,0)	(1,0)	(1,0)	
L1D -125>	(8,6)	(-7,1)	(1,7)	(29,15)	(-59,1)	(122,81)	(1,0)	(1,0)	(1,0)	(1,0)	(1,0)	(1,0)	(1,0)	(1,0)	(1,0)	(1,0)	
L1D -124>	(0,18)	(3,21)	(31,15)	(-19,3)	(-120,16)	(-20,24)	(-21,25)	(1,2)	(8,11)	(168,1)	(122,8)	(-8,1)	(1,0)	(1,0)	(1,0)	(1,0)	
L1D -123>	(-20,33)	(306,7)	(10,3)	(0,76)	(-2,1)	(-51,17)	(60,1)	(-19,47)	(-21,8)	(122,8)	(65,1)	(-18,1)	(1,0)	(1,0)	(1,0)	(1,0)	
L1D -122>	(20,1)	(-25,42)	(0,15)	(26,1)	(-20,5)	(-19,1)	(2,5)	(122,1)	(7,1)	(10,1)	(-24,2)	(92,4)	(1,1)	(1,0)	(1,0)	(1,0)	
L1D -121>	(-53,5)	(-49,5)	(-44,1)	(93,1)	(0,15)	(121,98)	(-41,7)	(-2,3)	(94,6)	(-45,5)	(-25,7)	(-37,0)	(118,11)	(-52,1)	(-13,0)	(1,3)	
L1D -120>	(159,47)	(-1,39)	(2,9)	(8,17)	(120,25)	(92,7)	(0,1)	(118,7)	(1,1)	(1,0)	(1,0)	(1,0)	(1,0)	(1,0)	(1,0)	(1,0)	
L1D -119>	(-1,5)	(298,4)	(0,11)	(-3,1)	(-2,102)	(10,3)	(93,47)	(2,12)	(168,1)	(116,1)	(1,0)	(1,0)	(1,0)	(1,0)	(1,0)	(1,0)	
L1D -118>	(1,85)	(80,1)	(118,1)	(0,1)	(54,1)	(1,0)	(1,0)	(1,0)	(1,0)	(1,0)	(1,0)	(1,0)	(1,0)	(1,0)	(1,0)	(1,0)	
L1D -117>	(0,81)	(114,51)	(-7,3)	(92,6)	(-59,1)	(2,2)	(1,0)	(1,0)	(1,0)	(1,0)	(1,0)	(1,0)	(1,0)	(1,0)	(1,0)	(1,0)	
L1D -116>	(-26,3)	(-27,2)	(168,1)	(2,5)	(114,1)	(47,1)	(-8,1)	(124,1)	(8,1)	(-7,1)	(1,0)	(1,0)	(1,0)	(1,0)	(1,0)	(1,0)	
L1D -115>	(14,23)	(-2,21)	(-26,1)	(-31,1)	(-22,2)	(112,3)	(56,2)	(-6,77)	(0,4)	(-8,1)	(2,3)	(93,7)	(10,2)	(1,0)	(1,0)	(1,0)	
L1D -114>	(2,1)	(114,27)	(10,3)	(-31,1)	(-83,87)	(-69,15)	(-84,7)	(168,2)	(-336,1)	(112,1)	(-72,1)	(1,0)	(1,0)	(1,0)	(1,0)	(1,0)	
L1D -113>	(1,127)	(110,51)	(0,11)	(-99,15)	(2,11)	(101,2)	(45,1)	(1,0)	(1,0)	(1,0)	(1,0)	(1,0)	(1,0)	(1,0)	(1,0)	(1,0)	
L1D -112>	(0,4)	(11,1)	(12,69)	(110,3)	(100,2)	(8,4)	(1,1)	(2,3)	(1,0)	(1,0)	(1,0)	(1,0)	(1,0)	(1,0)	(1,0)	(1,0)	
L1D -111>	(108,5)	(10,1)	(282,3)	(56,14)	(168,1)	(1,0)	(1,0)	(1,0)	(1,0)	(1,0)	(1,0)	(1,0)	(1,0)	(1,0)	(1,0)	(1,0)	
L1D -110>	(110,1)	(3,16)	(-35,9)	(0,2)	(63,1)	(1,0)	(1,0)	(1,0)	(1,0)	(1,0)	(1,0)	(1,0)	(1,0)	(1,0)	(1,0)	(1,0)	
L1D -109>	(-38,3)	(0,34)	(4,6)	(2,24)	(101,29)	(168,1)	(106,39)	(1,0)	(1,0)	(1,0)	(1,0)	(1,0)	(1,0)	(1,0)	(1,0)	(1,0)	
L1D -108>	(3,2)	(-2,1)	(0,36)	(-48,1)	(2,37)	(100,33)	(-38,2)	(106,3)	(4,1)	(1,0)	(1,0)	(1,0)	(1,0)	(1,0)	(1,0)	(1,0)	
L1D -107>	(107,94)	(76,21)	(73,41)	(-54,19)	(-15,25)	(-14,23)	(-179,7)	(-52,5)	(77,2)	(104,3)	(106,3)	(0,1)	(2,1)	(1,0)	(1,0)	(1,0)	
L1D -106>	(106,86)	(-13,99)	(-14,20)	(80,11)	(0,6)	(78,1)	(3,3)	(1,0)	(1,0)	(1,0)	(1,0)	(1,0)	(1,0)	(1,0)	(1,0)	(1,0)	
L1D -105>	(0,86)	(105,110)	(109,88)	(102,19)	(2,17)	(93,3)	(4,0)	(104,0)	(1,0)	(1,0)	(1,0)	(1,0)	(1,0)	(1,0)	(1,0)	(1,0)	
L1D -104>	(0,36)	(104,115)	(108,87)	(92,6)	(2,29)	(1,0)	(1,0)	(1,0)	(1,0)	(1,0)	(1,0)	(1,0)	(1,0)	(1,0)	(1,0)	(1,0)	
L1D -103>	(56,5)	(0,9)	(103,118)	(107,107)	(100,3)	(2,26)	(168,2)	(10,1)	(1,0)	(1,0)	(1,0)	(1,0)	(1,0)	(1,0)	(1,0)	(1,0)	
L1D -102>	(102,87)	(106,68)	(0,7)	(2,16)	(229,10)	(1,0)	(1,0)	(1,0)	(1,0)	(1,0)	(1,0)	(1,0)	(1,0)	(1,0)	(1,0)	(1,0)	
L1D -101>	(0,5)	(101,65)	(105,39)	(2,18)	(6,0)	(93,1)	(1,3)	(4,1)	(1,0)	(1,0)	(1,0)	(1,0)	(1,0)	(1,0)	(1,0)	(1,0)	
L1D -100>	(0,84)	(100,104)	(104,82)	(-4,1)	(98,23)	(2,8)	(92,1)	(4,3)	(1,0)	(1,0)	(1,0)	(1,0)	(1,0)	(1,0)	(1,0)	(1,0)	
L1D -99>	(0,24)	(99,71)	(103,54)	(6,8)	(2,22)	(72,21)	(4,3)	(49,0)	(98,3)	(50,0)	(168,0)	(1,0)	(1,0)	(1,0)	(1,0)	(1,0)	
L1D -98>	(0,14)	(98,106)	(102,87)	(2,25)	(1,20)	(1,0)	(1,0)	(1,0)	(1,0)	(1,0)	(1,0)	(1,0)	(1,0)	(1,0)	(1,0)	(1,0)	
L1D -97>	(0,5)	(97,79)	(101,24)	(105,34)	(2,4)	(93,0)	(-4,0)	(1,0)	(1,0)	(1,0)	(1,0)	(1,0)	(1,0)	(1,0)	(1,0)	(1,0)	
L1D -96>	(0,10)	(-1,6)	(96,124)	(100,46)	(104,69)	(2,18)	(69,0)	(1,0)	(1,0)	(1,0)	(1,0)	(1,0)	(1,0)	(1,0)	(1,0)	(1,0)	
L1D -95>	(1,60)	(6,2)	(95,125)	(-1,1)	(99,87)	(0,3)	(66,1)	(-2,93)	(103,3)	(2,25)	(1,0)	(1,0)	(1,0)	(1,0)	(1,0)	(1,0)	
L1D -94>	(96,37)	(94,83)	(98,63)	(0,8)	(6,3)	(2,3)	(-6,0)	(76,2)	(102,0)	(1,0)	(1,0)	(1,0)	(1,0)	(1,0)	(1,0)	(1,0)	
L1D -93>	(6,1)	(0,21)	(93,44)	(97,111)	(2,62)	(101,4)	(4,15)	(-1,17)	(-59,0)	(1,0)	(1,0)	(1,0)	(1,0)	(1,0)	(1,0)	(1,0)	
L1D -92>	(0,37)	(92,79)	(96,35)	(2,35)	(80,12)	(4,11)	(100,2)	(6,0)	(1,0)	(1,0)	(1,0)	(1,0)	(1,0)	(1,0)	(1,0)	(1,0)	
L1D -91>	(6,3)	(95,95)	(5,1)	(2,1)	(0,1)	(1,0)	(1,0)	(1,0)	(1,0)	(1,0)	(1,0)	(1,0)	(1,0)	(1,0)	(1,0)	(1,0)	
L1D -90>	(0,8)	(-2,14)	(-1,2)	(93,17)	(94,89)	(92,16)	(-19,4)	(-63,3)	(90,2)	(38,1)	(-28,1)	(2,8)	(-7,1)	(6,5)	(-16,2)	(-13,1)	
L1D -89>	(94,4)	(-2,6)	(-1,1)	(2,20)	(97,104)	(62,17)	(0,50)	(93,6)	(1,32)	(72,1)	(1,0)	(1,0)	(1,0)	(1,0)	(1,0)	(1,0)	
L1D -88>	(88,9)	(96,106)	(239,3)	(1,4)	(92,9)	(0,3)	(2,15)	(1,0)	(1,0)	(1,0)	(1,0)	(1,0)	(1,0)	(1,0)	(1,0)	(1,0)	
L1D -87>	(6,5)	(0,67)	(-1,2)	(84,1)	(95,1)	(1,5)	(239,11)	(1,0)	(1,0)	(1,0)	(1,0)	(1,0)	(1,0)	(1,0)	(1,0)	(1,0)	
L1D -86>	(86,78)	(59,10)	(6,16)	(-160,8)	(21,2)	(0,1)	(24,10)	(22,7)	(1,1)	(239,6)	(2,0)	(94,0)	(1,0)	(1,0)	(1,0)	(1,0)	
L1D -85>	(2,99)	(0,1)	(92,1)	(4,0)	(6,30)	(1,20)	(239,5)	(203,1)	(17,5)	(84,4)	(1,0)	(1,0)	(1,0)	(1,0)	(1,0)	(1,0)	
L1D -84>	(0,12)	(84,87)	(4,1)	(88,13)	(81,0)	(14,1)	(239,0)	(72,1)	(2,7)	(6,0)	(15,0)	(12,0)	(85,1)	(50,0)	(252,0)	(1,0)	
L1D -83>	(-2,7)	(2,5)	(0,6)	(-1,2)	(3,0)	(200,1)	(5,8)	(83,4)	(-11,8)	(1,0)	(14,9)	(84,83)	(56,3)	(6,1)	(-5,0)	(4,1)	
L1D -82>	(2,58)	(82,77)	(86,71)	(-2,17)	(-1,18)	(239,1)	(0,1)	(-4,1)	(84,1)	(3,2)	(1,0)	(6,0)	(1,0)	(1,0)	(1,0)	(1,0)	
L1D -81>	(81,7)	(239,6)	(17,1)	(8,9)	(83,10)	(0,3)	(-2,50)	(123,77)	(3,26)	(-4,6)	(2,1)	(7,5)	(82,2)	(1,0)	(1,0)	(1,0)	
L1D -80>	(-2,5)	(80,49)	(84,108)	(0,0)	(4,6)	(2,1)	(17,0)	(81,0)	(3,4)	(82,3)	(77,2)	(11,0)	(1,0)	(-4,0)	(-1,0)	(88,0)	
L1D -79>	(3,63)	(80,7)	(0,26)	(-3,2)	(79,29)	(81,4)	(-6,5)	(77,10)	(1,7)	(-7,15)	(42,11)	(-4,4)	(2,1)	(-1,7)	(4,9)	(14,9)	
L1D -78>	(5,1)	(78,110)	(82,40)	(2,48)	(71,14)	(6,0)	(42,2)	(0,19)	(-7,2)	(79,3)	(95,1)	(-23,1)	(-114,1)	(1,0)	(46,0)	(1,0)	
L1D -77>	(1,5)	(4,3)	(0,4)	(49,3)	(6,1)	(2,113)	(5,1)	(3,3)	(76,1)	(-7,3)	(79,1)	(-1,1)	(41,6)	(42,6)	(-114,3)	(78,2)	
L1D -76>	(0,41)	(76,59)	(80,88)	(4,11)	(6,0)	(2,49)	(64,8)	(73,1)	(42,1)	(-2,2)	(1,10)	(41,1)	(40,0)	(77,0)	(3,3)	(84,0)	
L1D -75>	(-3,3)	(3,118)	(2,28)	(-2,68)	(1,7)	(-1,50)	(4,8)	(-4,1)	(73,9)	(39,13)	(0,8)	(-10,3)	(75,7)	(40,14)	(38,6)	(-11,4)	
L1D -74>	(-1,11)	(-2,15)	(74,94)	(78,58)	(2,54)	(-10,1)	(38,1)	(72,0)	(75,3)	(7,0)	(0,7)	(39,1)	(6,1)	(37,1)	(3,0)	(1,0)	
L1D -73>	(66,2)	(17,2)	(-2,49)	(73,2)	(1,59)	(0,4)	(6,1)	(37,10)	(72,3)	(71,3)	(75,19)	(7,1)	(-8,2)	(38,5)	(-11,3)	(168,1)	
L1D -72>	(-2,3)	(0,4)	(72,39)	(76,96)	(69,0)	(-8,0)	(2,6)	(4,6)	(7,1)	(36,0)	(1,0)	(74,1)	(73,0)	(17,0)	(186,0)	(37,0)	
L1D -71>	(71,3)	(7,60)	(97,1)	(4,81)	(6,2)	(1,7)	(73,14)	(3,2)	(36,3)	(35,8)	(69,6)	(-8,21)	(-1,4)	(2,1)	(5,1)	(70,1)	
L1D -70>	(-13,1)	(70,92)	(43,20)	(73,8)	(74,2)	(0,3)	(1,24)	(35,2)	(71,1)	(2,2)	(240,0)	(72,2)	(78,0)	(4,0)	(1,0)	(1,0)	
L1D -69>	(34,1)	(0,19)	(2,117)	(-3,1)	(69,88)	(72,15)	(1,15)	(6,0)	(63,0)	(-14,0)	(4,2)	(71,3)	(31,0)	(70,0)	(183,4)	(1,0)	
L1D -68>	(7,3)	(2,44)	(0,11)	(68,63)	(72,69)	(14,6)	(201,10)	(70,21)	(65,2)	(3,1)	(1,2)	(4,2)	(56,6)	(69,1)	(6,0)	(17,0)	
L1D -67>	(-1,58)	(-2,69)	(68,4)	(0,21)	(2,22)	(69,8)	(65,14)	(4,9)	(3,6)	(67,7)	(14,6)	(-4,1)	(1,3)	(41,1)	(1,0)	(1,0)	
L1D -66>	(-2,23)	(66,118)	(70,42)	(-1,14)	(0,23)	(64,0)	(2,45)	(-55,20)	(49,7)	(68,2)	(236,0)	(67,5)	(6,0)	(-37,1)	(1,0)	(1,0)	
L1D -65>	(-2,60)	(65,35)	(67,9)	(1,16)	(-1,1)	(66,2)	(38,2)	(11,4)	(8,2)	(57,1)	(0,1)	(2,1)	(6,1)	(1,0)	(1,0)	(1,0)	
L1D -64>	(0,14)	(64,31)	(68,70)	(4,5)	(45,0)	(61,2)	(-2,3)	(-1,0)	(34,2)	(1,1)	(66,1)	(2,2)	(3,0)	(65,0)	(11,0)	(1,0)	
L1D -63>	(61,6)	(64,1)	(0,4)	(63,66)	(65,90)	(-18,5)	(1,5)	(-1,2)	(3,3)	(45,4)	(4,2)	(2,1)	(6,0)	(-4,0)	(1,0)	(1,0)	
L1D -62>	(8,5)	(62,94)	(66,21)	(2,47)	(0,4)	(63,3)	(-3,1)	(64,4)	(-2,2)	(70,0)	(-1,0)	(1,1)	(1,0)	(1,0)	(1,0)	(1,0)	
L1D -61>	(126,51)	(61,13)	(2,120)	(0,2)	(44,3)	(63,14)	(1,3)	(64,0)	(17,0)	(6,0)	(-1,0)	(4,0)	(1,0)	(1,0)	(1,0)	(1,0)	
L1D -60>	(2,50)	(0,15)	(60,82)	(64,103)	(57,3)	(4,11)	(5,2)	(3,1)	(62,2)	(-178,0)	(61,0)	(68,0)	(6,1)	(1,0)	(1,0)	(1,0)	
L1D -59>	(-1,25)	(-2,28)	(0,33)	(1,3)	(3,15)	(-56,23)	(-4,1)	(61,76)	(2,13)	(59,11)	(4,8)	(57,2)	(5,0)	(44,1)	(58,0)	(43,0)	
L1D -58>	(-1,7)	(58,95)	(62,35)	(3,6)	(-2,7)	(0,2)	(2,32)	(57,0)	(-69,0)	(-53,0)	(147,1)	(59,1)	(7,0)	(1,0)	(1,0)	(1,0)	
L1D -57>	(-4,2)	(-2,58)	(147,66)	(57,2)	(59,9)	(17,1)	(1,50)	(5,51)	(3,9)	(58,1)	(75,1)	(0,11)	(175,3)	(43,1)	(-1,1)	(1,0)	
L1D -56>	(17,1)	(0,22)	(56,65)	(60,127)	(4,13)	(-2,7)	(3,1)	(53,1)	(58,1)	(2,13)	(1,3)	(-8,1)	(64,0)	(55,0)	(1,0)	(1,0)	
L1D -55>	(18,99)	(0,16)	(1,43)	(62,21)	(59,59)	(55,80)	(56,2)	(57,25)	(-56,57)	(4,12)	(53,12)	(3,4)	(-1,3)	(2,4)	(5,1)	(1,0)	
L1D -54>	(-119,19)	(0,3)	(55,24)	(54,27)	(56,55)	(1,19)	(2,4)	(-14,1)	(50,1)	(57,3)	(58,4)	(4,1)	(1,0)	(1,0)	(1,0)	(1,0)	
L1D -53>	(-1,2)	(52,1)	(1,37)	(53,123)	(174,12)	(55,31)	(2,2)	(56,6)	(15,1)	(0,0)	(39,0)	(54,0)	(1,0)	(1,0)	(1,0)	(1,0)	
L1D -52>	(14,22)	(53,4)	(0,8)	(52,38)	(54,84)	(1,9)	(49,12)	(3,1)	(4,12)	(51,3)	(17,2)	(56,3)	(6,1)	(55,1)	(-126,1)	(15,4)	
L1D -51>	(0,50)	(1,4)	(66,18)	(53,116)	(49,9)	(51,34)	(4,6)	(3,3)	(-1,2)	(17,1)	(59,1)	(-6,18)	(-4,2)	(14,4)	(54,1)	(-60,1)	
L1D -50>	(7,1)	(0,3)	(51,9)	(2,9)	(58,34)	(50,29)	(-15,7)	(52,80)	(-28,1)	(-7,0)	(1,6)	(49,1)	(54,2)	(26,1)	(61,0)	(46,0)	
L1D -49>	(-25,1)	(1,62)	(-1,5)	(-2,6)	(2,1)	(-3,22)	(-40,1)	(0,3)	(8,1)	(42,3)	(-28,5)	(44,6)	(51,1)	(76,1)	(49,1)	(50,3)	
L1D -48>	(43,2)	(50,3)	(48,113)	(0,116)	(4,40)	(2,80)	(223,2)	(49,7)	(45,20)	(47,1)	(41,8)	(3,10)	(-8,3)	(-1,2)	(-28,7)	(1,1)	
L1D -47>	(0,12)	(74,1)	(47,104)	(51,1)	(5,1)	(4,10)	(45,8)	(-2,2)	(3,7)	(-1,4)	(-3,14)	(1,5)	(40,7)	(-28,32)	(-4,1)	(49,4)	
L1D -46>	(-2,10)	(2,10)	(47,17)	(0,6)	(169,4)	(46,32)	(-28,26)	(48,38)	(39,7)	(-11,13)	(221,2)	(73,3)	(-55,19)	(1,10)	(6,3)	(-37,1)	
L1D -45>	(1,21)	(-1,1)	(13,2)	(2,5)	(-17,1)	(45,114)	(-2,13)	(47,12)	(72,2)	(38,8)	(-28,8)	(35,6)	(25,1)	(48,2)	(3,1)	(0,3)	
L1D -44>	(12,12)	(-28,11)	(4,53)	(0,10)	(45,13)	(41,39)	(71,4)	(1,28)	(6,3)	(52,30)	(-18,40)	(44,6)	(37,16)	(46,57)	(2,47)	(3,2)	
L1D -43>	(3,11)	(-23,13)	(-28,4)	(-1,14)	(1,122)	(0,17)	(11,18)	(36,24)	(43,1)	(-20,2)	(2,15)	(7,49)	(35,108)	(23,97)	(4,10)	(41,7)	
L1D -42>	(0,19)	(-11,1)	(46,6)	(43,18)	(69,6)	(-37,3)	(14,30)	(50,15)	(51,5)	(1,2)	(10,24)	(35,11)	(2,10)	(6,21)	(3,7)	(42,5)	
L1D -41>	(1,1)	(24,7)	(-1,78)	(17,1)	(5,2)	(23,102)	(50,2)	(-3,28)	(9,24)	(0,20)	(42,2)	(41,1)	(2,2)	(-2,4)	(13,2)	(3,6)	
L1D -40>	(0,102)	(4,46)	(-10,39)	(3,34)	(8,32)	(41,2)	(11,50)	(15,54)	(25,42)	(6,4)	(1,82)	(-8,13)	(40,17)	(37,21)	(12,10)	(38,1)	
L1D -39>	(0,98)	(2,28)	(7,71)	(3,4)	(-1,20)	(39,1)	(40,7)	(1,22)	(34,8)	(-25,4)	(37,2)	(4,1)	(-3,3)	(236,0)	(41,1)	(-27,3)	
L1D -38>	(44,54)	(2,21)	(0,109)	(42,6)	(-5,72)	(37,2)	(3,3)	(38,4)	(32,69)	(1,89)	(-1,3)	(41,1)	(39,17)	(36,0)	(40,2)	(18,0)	
L1D -37>	(26,0)	(-2,0)	(9,10)	(1,43)	(3,4)	(0,78)	(38,1)	(11,0)	(29,27)	(2,2)	(17,54)	(-1,27)	(37,0)	(34,0)	(36,0)	(39,1)	
L1D -36>	(43,36)	(-8,21)	(2,15)	(-1,9)	(12,1)	(14,96)	(0,98)	(36,40)	(-2,3)	(37,5)	(33,7)	(1,66)	(17,17)	(10,26)	(22,23)	(-7,24)	
L1D -35>	(10,14)	(1,96)	(0,75)	(-1,34)	(37,1)	(35,30)	(33,7)	(-2,2)	(39,62)	(4,13)	(3,4)	(34,4)	(16,21)	(2,9)	(17,13)	(36,3)	
L1D -34>	(34,94)	(-1,5)	(-7,24)	(4,8)	(42,0)	(37,17)	(35,3)	(10,1)	(1,23)	(36,1)	(33,1)	(0,19)	(6,38)	(183,20)	(-2,3)	(29,1)	
L1D -33>	(1,92)	(-3,40)	(6,64)	(33,11)	(2,7)	(9,1)	(0,61)	(34,3)	(188,60)	(32,2)	(48,23)	(22,3)	(35,2)	(10,9)	(-2,1)	(-1,1)	
L1D -32>	(-32,53)	(79,53)	(0,40)	(3,53)	(32,107)	(65,101)	(21,4)	(1,114)	(27,1)	(31,17)	(33,54)	(25,2)	(29,26)	(36,27)	(10,11)	(4,31)	
L1D -31>	(1,72)	(0,87)	(10,28)	(32,20)	(6,4)	(29,1)	(31,8)	(15,4)	(27,4)	(3,26)	(-1,0)	(2,52)	(-2,8)	(35,0)	(4,46)	(26,1)	
L1D -30>	(3,61)	(2,61)	(0,83)	(36,5)	(-12,21)	(-19,7)	(-13,4)	(31,8)	(30,17)	(1,93)	(-7,2)	(6,3)	(32,4)	(4,85)	(38,1)	(-1,6)	
L1D -29>	(25,1)	(30,1)	(36,1)	(-1,25)	(0,67)	(27,2)	(1,45)	(29,22)	(3,23)	(4,10)	(32,7)	(19,3)	(-11,3)	(2,11)	(6,2)	(21,30)	
L1D -28>	(25,6)	(-355,14)	(1,23)	(-147,1)	(8,9)	(-43,3)	(0,8)	(28,65)	(-6,103)	(-44,3)	(-1,6)	(29,14)	(-11,16)	(2,6)	(-47,1)	(-45,2)	
L1D -27>	(28,44)	(1,5)	(0,48)	(5,3)	(8,1)	(-10,4)	(27,28)	(32,3)	(-1,6)	(6,51)	(2,11)	(-56,65)	(-72,117)	(35,16)	(143,11)	(4,10)	
L1D -26>	(28,64)	(1,16)	(23,6)	(26,23)	(25,8)	(4,9)	(6,98)	(-1,10)	(-10,6)	(8,5)	(27,76)	(141,15)	(22,1)	(32,9)	(121,11)	(142,15)	
L1D -25>	(6,22)	(0,87)	(42,42)	(-15,18)	(22,8)	(25,101)	(21,32)	(14,12)	(32,15)	(24,6)	(-10,25)	(26,23)	(1,25)	(27,11)	(29,1)	(10,23)	
L1D -24>	(28,80)	(0,38)	(27,7)	(4,26)	(8,14)	(1,33)	(-1,8)	(24,18)	(35,1)	(-18,20)	(21,11)	(25,2)	(2,32)	(3,7)	(39,12)	(-4,2)	
L1D -23>	(0,87)	(1,8)	(23,16)	(6,8)	(22,7)	(3,2)	(19,1)	(8,10)	(33,19)	(-10,1)	(32,3)	(15,3)	(-3,1)	(38,12)	(-300,1)	(27,10)	
L1D -22>	(8,65)	(23,88)	(22,23)	(0,36)	(-1,21)	(6,41)	(4,80)	(42,40)	(1,75)	(32,16)	(16,3)	(-10,6)	(-93,1)	(29,67)	(25,7)	(21,77)	
L1D -21>	(-7,24)	(-9,23)	(7,35)	(12,7)	(0,124)	(25,19)	(11,5)	(10,27)	(-1,19)	(6,8)	(19,23)	(16,15)	(1,89)	(-8,4)	(24,1)	(23,3)	
L1D -20>	(-1,72)	(0,94)	(6,89)	(8,20)	(20,12)	(24,30)	(2,47)	(-17,4)	(21,5)	(1,76)	(28,16)	(23,44)	(19,10)	(-8,1)	(25,13)	(27,9)	
L1D -19>	(-1,12)	(1,37)	(3,4)	(-8,1)	(20,2)	(0,85)	(15,4)	(19,12)	(25,1)	(7,6)	(32,4)	(21,9)	(-71,29)	(8,11)	(23,6)	(18,30)	
L1D -18>	(0,85)	(-3,6)	(25,13)	(22,1)	(2,32)	(12,106)	(14,16)	(1,80)	(46,14)	(19,24)	(21,5)	(17,15)	(83,2)	(18,2)	(-1,22)	(3,8)	
L1D -17>	(6,34)	(17,107)	(3,14)	(4,10)	(16,49)	(14,30)	(19,28)	(-1,9)	(0,120)	(2,70)	(1,90)	(13,16)	(-15,20)	(-5,19)	(-22,2)	(20,17)	
L1D -16>	(1,34)	(15,83)	(6,8)	(3,84)	(2,6)	(19,21)	(18,17)	(-2,99)	(4,22)	(-5,28)	(17,7)	(0,111)	(20,1)	(5,13)	(-1,43)	(16,21)	
L1D -15>	(4,7)	(2,63)	(15,13)	(-51,30)	(0,19)	(6,27)	(-2,25)	(17,1)	(3,55)	(-3,10)	(14,29)	(336,7)	(-11,25)	(-26,28)	(19,8)	(1,94)	
L1D -14>	(-10,43)	(-317,26)	(-7,30)	(6,1)	(15,21)	(-23,31)	(2,30)	(12,11)	(10,7)	(8,5)	(0,34)	(17,7)	(14,43)	(13,39)	(1,93)	(16,12)	
L1D -13>	(5,2)	(3,7)	(15,8)	(1,2)	(165,2)	(8,0)	(0,49)	(13,10)	(17,13)	(93,4)	(-8,9)	(-1,6)	(12,9)	(-3,65)	(11,7)	(2,36)	
L1D -12>	(37,1)	(4,14)	(6,4)	(10,1)	(1,27)	(13,87)	(-1,38)	(-2,8)	(-9,100)	(2,29)	(14,3)	(3,6)	(0,34)	(20,14)	(-31,8)	(12,16)	
L1D -11>	(-2,6)	(9,4)	(-1,1)	(12,0)	(20,77)	(-3,1)	(2,7)	(-9,4)	(1,6)	(4,1)	(0,3)	(-10,71)	(10,2)	(11,4)	(8,1)	(3,1)	
L1D -10>	(3,1)	(2,0)	(6,1)	(-160,0)	(11,13)	(33,1)	(0,67)	(17,1)	(54,1)	(49,1)	(12,1)	(1,2)	(9,0)	(-1,9)	(65,1)	(-36,1)	
L1D -9>	(-2,5)	(3,7)	(6,26)	(-1,118)	(15,10)	(2,27)	(129,10)	(11,8)	(10,23)	(-7,2)	(7,9)	(1,12)	(0,94)	(13,12)	(19,127)	(5,6)	
L1D -8>	(345,1)	(10,2)	(6,31)	(-392,7)	(7,4)	(1,98)	(150,13)	(-12,7)	(12,8)	(2,17)	(-4,7)	(11,11)	(3,6)	(9,8)	(0,22)	(-1,9)	
L1D -7>	(7,18)	(-9,1)	(34,6)	(8,100)	(6,22)	(30,5)	(-1,1)	(1,16)	(9,9)	(0,12)	(5,4)	(15,2)	(13,2)	(41,2)	(17,3)	(19,6)	
L1D -6>	(5,1)	(8,9)	(4,9)	(-7,1)	(30,4)	(-2,2)	(1,13)	(3,1)	(338,4)	(7,21)	(6,116)	(0,8)	(-9,6)	(34,12)	(9,0)	(-32,0)	
L1D -5>	(-1,7)	(1,77)	(-8,5)	(7,39)	(-11,43)	(6,103)	(-39,8)	(4,20)	(0,27)	(-3,6)	(15,18)	(41,22)	(8,3)	(5,87)	(3,31)	(-137,1)	
L1D -4>	(4,96)	(6,5)	(-9,1)	(12,5)	(-3,10)	(5,38)	(1,18)	(-2,14)	(8,8)	(0,12)	(-27,2)	(2,42)	(-17,4)	(-20,2)	(-21,1)	(368,5)	
L1D -3>	(7,5)	(-22,5)	(5,2)	(51,1)	(2,30)	(14,1)	(4,18)	(11,34)	(-2,34)	(-9,3)	(8,4)	(1,92)	(3,32)	(0,44)	(38,3)	(6,10)	
L1D -2>	(8,17)	(-3,34)	(60,1)	(-2,1)	(2,95)	(0,31)	(-1,16)	(-12,2)	(1,29)	(-8,25)	(6,5)	(3,11)	(-4,3)	(4,3)	(-83,2)	(13,5)	
L1D -1>	(-1,18)	(-3,3)	(2,64)	(1,24)	(8,20)	(11,2)	(7,1)	(4,14)	(-2,5)	(0,49)	(-8,4)	(12,33)	(15,9)	(84,8)	(3,5)	(13,30)	
L1D 0>	(8,2)	(0,107)	(12,44)	(-59,1)	(4,2)	(2,122)	(-335,2)	(-1,6)	(168,11)	(1,9)	(84,1)	(3,3)	(-7,1)	(-337,2)	(-2,2)	(-51,2)	
L1D 1>	(-137,2)	(1,81)	(167,12)	(3,10)	(-1,5)	(-337,3)	(-338,2)	(15,3)	(56,1)	(9,3)	(6,4)	(0,6)	(-2,3)	(2,19)	(-3,5)	(33,2)	
L1D 2>	(60,3)	(0,72)	(-2,17)	(1,16)	(-76,1)	(6,13)	(-4,2)	(-3,2)	(7,5)	(-13,4)	(-31,2)	(2,57)	(3,5)	(-61,1)	(76,2)	(-1,20)	
L1D 3>	(64,24)	(-4,11)	(2,88)	(0,33)	(-2,47)	(1,121)	(-1,38)	(6,1)	(165,4)	(17,28)	(-3,105)	(-12,11)	(3,71)	(9,7)	(-31,22)	(-14,20)	
L1D 4>	(-9,1)	(8,21)	(-280,1)	(-72,11)	(30,5)	(-5,11)	(-84,13)	(2,15)	(1,40)	(-4,49)	(-78,5)	(-12,15)	(3,4)	(0,21)	(4,66)	(-70,4)	
L1D 5>	(-3,4)	(1,103)	(-6,12)	(-19,1)	(0,32)	(-4,64)	(13,12)	(-7,114)	(9,18)	(15,11)	(4,36)	(-5,51)	(-2,17)	(2,21)	(-9,2)	(-8,4)	
L1D 6>	(-4,21)	(4,20)	(1,62)	(-18,12)	(28,19)	(14,7)	(-6,75)	(2,25)	(16,8)	(-5,17)	(25,6)	(15,13)	(54,9)	(0,28)	(70,1)	(24,8)	
L1D 7>	(-2,12)	(-4,18)	(65,32)	(-8,33)	(60,1)	(-7,87)	(-3,15)	(-16,18)	(8,25)	(1,118)	(-18,47)	(-6,15)	(4,9)	(-15,12)	(32,5)	(-29,8)	
L1D 8>	(46,1)	(-7,40)	(8,86)	(-27,2)	(28,4)	(-37,3)	(-8,4)	(-76,4)	(-11,2)	(-10,32)	(9,4)	(7,3)	(4,22)	(1,117)	(-4,4)	(-21,11)	
L1D 9>	(-18,19)	(-9,6)	(-21,1)	(-12,110)	(-6,18)	(-1,21)	(-5,16)	(10,7)	(8,25)	(-7,10)	(-11,15)	(1,8)	(51,52)	(-8,17)	(11,49)	(-20,40)	
L1D 10>	(-14,9)	(264,30)	(-20,1)	(-8,89)	(-10,97)	(-9,31)	(-11,89)	(22,11)	(-7,36)	(-12,27)	(288,28)	(-37,78)	(-39,57)	(0,91)	(272,57)	(256,8)	
L1D 11>	(-12,93)	(-10,24)	(0,7)	(-21,1)	(8,4)	(-16,1)	(-9,88)	(-8,4)	(1,12)	(-4,1)	(10,8)	(-11,6)	(-7,2)	(-55,2)	(-40,4)	(-1,1)	
L1D 12>	(10,1)	(-10,1)	(-11,86)	(-12,1)	(-32,0)	(-2,1)	(-8,0)	(-159,0)	(2,1)	(6,2)	(9,0)	(-1,1)	(-15,0)	(8,1)	(-30,1)	(1,1)	
L1D 13>	(-12,6)	(9,69)	(-8,5)	(1,97)	(-13,25)	(-11,19)	(-14,7)	(-4,1)	(4,2)	(28,6)	(-9,0)	(6,8)	(0,1)	(-36,29)	(-2,4)	(-17,1)	
L1D 14>	(-17,23)	(0,49)	(-8,14)	(-27,2)	(8,58)	(-21,27)	(-11,52)	(-6,6)	(1,36)	(-9,8)	(-13,69)	(-15,60)	(-5,5)	(-12,14)	(-14,57)	(-3,19)	
L1D 15>	(4,26)	(2,3)	(-16,56)	(-36,13)	(3,2)	(-12,12)	(-21,12)	(-13,23)	(-14,22)	(1,100)	(16,13)	(18,67)	(-5,1)	(0,23)	(-15,14)	(-20,11)	
L1D 16>	(-14,78)	(0,68)	(-15,19)	(7,26)	(-13,84)	(-17,102)	(-16,25)	(4,38)	(3,4)	(-21,1)	(-12,23)	(-1,12)	(-11,46)	(1,22)	(-8,25)	(-10,14)	
L1D 17>	(-17,11)	(0,53)	(23,20)	(-18,92)	(1,45)	(14,9)	(-21,13)	(152,1)	(-20,45)	(4,40)	(-16,61)	(-13,25)	(-6,4)	(-95,21)	(-4,22)	(-5,47)	
L1D 18>	(-9,6)	(0,55)	(2,81)	(-1,6)	(-2,1)	(-5,2)	(-19,12)	(7,8)	(4,17)	(1,6)	(-12,4)	(-18,26)	(-8,4)	(-10,1)	(-4,8)	(-86,12)	
L1D 19>	(0,3)	(-23,2)	(-4,2)	(-13,75)	(4,5)	(-19,10)	(1,8)	(-8,2)	(-20,4)	(7,6)	(-1,1)	(-12,3)	(20,1)	(3,2)	(-16,5)	(-2,1)	
L1D 20>	(-40,1)	(138,1)	(-24,0)	(161,1)	(20,2)	(150,0)	(134,2)	(-22,0)	(-8,0)	(-21,1)	(-20,1)	(-37,1)	(-43,1)	(1,1)	(-11,94)	(9,1)	
L1D 21>	(148,20)	(4,10)	(132,5)	(1,86)	(0,15)	(156,2)	(-26,4)	(-21,40)	(-20,64)	(14,6)	(-5,6)	(120,3)	(-31,4)	(-37,42)	(-22,11)	(-7,7)	
L1D 22>	(-24,81)	(-7,4)	(-27,7)	(-23,45)	(7,11)	(-33,8)	(34,33)	(0,6)	(-5,4)	(1,4)	(-12,4)	(-20,24)	(173,2)	(-21,55)	(-22,15)	(-11,3)	
L1D 23>	(3,15)	(-33,56)	(1,106)	(6,13)	(7,35)	(-22,4)	(-1,55)	(15,1)	(-23,46)	(0,55)	(-16,11)	(13,52)	(-24,8)	(4,85)	(2,13)	(-17,19)	
L1D 24>	(15,65)	(1,80)	(-24,92)	(-15,1)	(-34,18)	(0,29)	(8,39)	(-3,22)	(-25,61)	(4,17)	(-1,45)	(-33,45)	(-4,52)	(-22,21)	(-31,22)	(21,16)	
L1D 25>	(-1,13)	(1,83)	(-32,27)	(0,36)	(-26,26)	(-4,44)	(-25,68)	(-24,39)	(-35,28)	(13,59)	(-3,57)	(-49,1)	(-18,23)	(-34,63)	(2,27)	(-31,12)	
L1D 26>	(0,8)	(-4,42)	(2,63)	(-26,45)	(1,41)	(-36,10)	(304,4)	(306,22)	(-18,24)	(4,48)	(-66,12)	(10,30)	(-14,26)	(-28,9)	(307,1)	(-20,9)	
L1D 27>	(-33,3)	(-27,61)	(11,2)	(-4,1)	(1,106)	(-26,85)	(0,8)	(2,28)	(-20,26)	(8,4)	(-8,2)	(-29,6)	(-28,20)	(9,62)	(3,14)	(-32,3)	
L1D 28>	(-2,5)	(-27,10)	(-34,64)	(-70,1)	(-28,22)	(-29,18)	(-26,0)	(173,1)	(-77,0)	(-75,0)	(-74,1)	(-21,3)	(4,1)	(8,9)	(1,10)	(0,4)	
L1D 29>	(-15,33)	(0,15)	(1,34)	(-29,73)	(-28,64)	(3,4)	(2,22)	(79,37)	(-27,4)	(-30,8)	(11,13)	(-40,29)	(-31,34)	(-22,1)	(-26,8)	(-36,6)	
L1D 30>	(-9,1)	(65,18)	(1,80)	(-30,14)	(-14,1)	(-36,18)	(0,31)	(-29,27)	(-59,0)	(-31,7)	(-27,14)	(-4,0)	(3,6)	(-33,5)	(1,0)	(1,0)	
L1D 31>	(93,78)	(-28,38)	(1,16)	(-31,49)	(-30,80)	(-14,1)	(-6,5)	(-39,29)	(-32,26)	(-26,3)	(-27,6)	(-43,66)	(143,48)	(-40,5)	(-42,7)	(-4,4)	
L1D 32>	(-32,85)	(-8,22)	(-22,9)	(-29,8)	(-39,98)	(-31,108)	(-40,11)	(-33,8)	(1,1)	(-6,19)	(-11,12)	(12,18)	(0,75)	(-4,14)	(-14,6)	(-13,8)	
L1D 33>	(12,20)	(1,37)	(-32,17)	(-33,28)	(0,96)	(-30,8)	(2,19)	(-36,9)	(-4,43)	(24,40)	(-23,5)	(3,3)	(-34,22)	(-15,0)	(-18,0)	(-113,0)	
L1D 34>	(1,6)	(-35,10)	(-24,6)	(3,3)	(-8,59)	(-34,32)	(155,3)	(-33,50)	(66,0)	(-23,17)	(-28,113)	(-36,2)	(-20,21)	(-37,7)	(2,3)	(10,1)	
L1D 35>	(-34,22)	(-36,64)	(-10,1)	(-32,105)	(4,25)	(-39,74)	(-61,41)	(0,42)	(-35,27)	(1,15)	(-38,8)	(-25,15)	(8,19)	(-30,43)	(-22,44)	(-14,36)	
L1D 36>	(-26,4)	(0,3)	(-1,34)	(4,20)	(-36,99)	(-37,101)	(3,35)	(-47,4)	(-35,87)	(-40,34)	(-33,9)	(14,1)	(-44,10)	(-50,5)	(1,18)	(-32,12)	
L1D 37>	(1,38)	(4,39)	(-37,35)	(-34,8)	(2,26)	(0,4)	(-36,27)	(-8,37)	(-25,24)	(-38,66)	(3,4)	(-39,30)	(-41,1)	(-32,1)	(-44,0)	(-3,0)	
L1D 38>	(-38,94)	(-16,3)	(1,5)	(-40,94)	(4,32)	(-35,70)	(-18,62)	(-15,15)	(-37,42)	(-36,4)	(-13,6)	(-26,1)	(-39,11)	(21,13)	(-25,16)	(-27,5)	
L1D 39>	(1,25)	(0,27)	(-38,115)	(-35,9)	(-39,75)	(-16,2)	(2,13)	(20,57)	(4,57)	(-41,17)	(-40,10)	(-2,1)	(-28,1)	(17,1)	(-43,16)	(-6,9)	
L1D 40>	(-40,66)	(0,51)	(-39,37)	(4,52)	(-37,1)	(-44,10)	(-42,8)	(-29,1)	(1,0)	(1,0)	(1,0)	(1,0)	(1,0)	(1,0)	(1,0)	(1,0)	
L1D 41>	(-45,1)	(-39,107)	(-36,79)	(-8,28)	(-37,12)	(16,86)	(1,81)	(0,11)	(2,39)	(4,58)	(-43,49)	(-42,8)	(83,29)	(-28,79)	(-38,16)	(3,22)	
L1D 42>	(0,6)	(-42,10)	(-24,60)	(4,72)	(-15,102)	(-41,105)	(34,1)	(-40,7)	(2,3)	(1,10)	(8,8)	(-28,4)	(-57,1)	(-46,1)	(-45,1)	(1,0)	
L1D 43>	(-44,1)	(307,1)	(176,80)	(-56,126)	(0,36)	(2,4)	(-24,1)	(1,14)	(4,5)	(-47,1)	(-43,4)	(-28,5)	(306,4)	(10,1)	(304,1)	(-39,4)	
L1D 44>	(-6,84)	(0,41)	(-255,1)	(-8,38)	(2,29)	(1,14)	(16,4)	(8,4)	(-23,1)	(-32,1)	(-10,2)	(15,6)	(17,7)	(-14,1)	(-44,1)	(24,3)	
L1D 45>	(1,33)	(-42,6)	(2,79)	(0,38)	(3,4)	(-44,19)	(6,0)	(-46,2)	(13,0)	(19,0)	(-45,1)	(18,3)	(1,0)	(1,0)	(1,0)	(1,0)	
L1D 46>	(0,89)	(8,34)	(-48,49)	(-39,1)	(-32,25)	(-45,71)	(2,24)	(18,0)	(1,3)	(4,0)	(-57,3)	(168,0)	(123,2)	(1,0)	(1,0)	(1,0)	
L1D 47>	(-50,4)	(-47,63)	(1,17)	(-46,1)	(-32,3)	(42,4)	(0,3)	(2,33)	(4,20)	(-43,3)	(-41,3)	(-53,1)	(168,1)	(8,1)	(-48,1)	(-51,1)	
L1D 48>	(-46,2)	(0,102)	(2,14)	(-57,2)	(1,11)	(-5,1)	(-49,2)	(-11,2)	(-41,2)	(-50,1)	(-58,0)	(1,0)	(1,0)	(1,0)	(1,0)	(1,0)	
L1D 49>	(-10,16)	(2,36)	(0,60)	(-46,14)	(1,95)	(16,73)	(17,20)	(3,7)	(-39,1)	(25,2)	(50,1)	(-50,3)	(-25,1)	(40,3)	(-45,2)	(20,1)	
L1D 50>	(1,69)	(15,5)	(0,55)	(2,44)	(-40,4)	(-32,21)	(8,16)	(-252,15)	(-10,75)	(-65,5)	(-44,6)	(168,1)	(123,2)	(-43,2)	(-51,3)	(-50,7)	
L1D 51>	(-40,0)	(0,78)	(1,7)	(-11,5)	(15,15)	(2,9)	(-5,2)	(-47,1)	(3,1)	(42,1)	(-55,0)	(-52,0)	(-45,0)	(-50,0)	(1,0)	(1,0)	
L1D 52>	(-6,20)	(-48,0)	(0,85)	(8,5)	(16,2)	(-46,0)	(-60,4)	(-51,4)	(-40,3)	(-45,3)	(2,4)	(4,4)	(1,2)	(-41,0)	(-52,0)	(42,0)	
L1D 53>	(1,25)	(-50,2)	(2,65)	(0,34)	(-52,75)	(-64,2)	(3,2)	(-45,0)	(-54,0)	(-41,0)	(-49,2)	(1,0)	(1,0)	(1,0)	(1,0)	(1,0)	
L1D 54>	(0,47)	(-78,0)	(4,90)	(-50,49)	(-53,73)	(2,24)	(-55,23)	(-66,1)	(1,2)	(40,0)	(-60,0)	(1,0)	(1,0)	(1,0)	(1,0)	(1,0)	
L1D 55>	(1,18)	(0,114)	(-48,0)	(-56,2)	(2,4)	(-51,4)	(36,3)	(38,0)	(1,0)	(1,0)	(1,0)	(1,0)	(1,0)	(1,0)	(1,0)	(1,0)	
L1D 56>	(4,43)	(-62,0)	(-56,74)	(0,6)	(-55,4)	(-52,3)	(2,1)	(-179,0)	(-116,0)	(1,0)	(1,0)	(1,0)	(1,0)	(1,0)	(1,0)	(1,0)	
L1D 57>	(1,90)	(-56,21)	(-54,13)	(0,27)	(-26,2)	(2,70)	(-52,6)	(-53,2)	(34,10)	(3,3)	(-58,2)	(4,1)	(-85,5)	(118,2)	(1,0)	(1,0)	
L1D 58>	(0,4)	(-58,68)	(-56,32)	(-51,1)	(-55,4)	(4,25)	(1,1)	(-60,1)	(-111,2)	(-123,0)	(-67,0)	(1,0)	(1,0)	(1,0)	(1,0)	(1,0)	
L1D 59>	(0,65)	(-72,113)	(-56,3)	(-3,1)	(1,26)	(18,1)	(2,52)	(-52,15)	(-60,64)	(8,5)	(6,10)	(-63,4)	(-1,1)	(-58,1)	(-24,1)	(-55,2)	
L1D 60>	(-58,47)	(-60,114)	(0,31)	(4,47)	(-56,0)	(-59,4)	(2,3)	(1,0)	(1,0)	(1,0)	(1,0)	(1,0)	(1,0)	(1,0)	(1,0)	(1,0)	
L1D 61>	(0,36)	(1,22)	(-58,2)	(2,71)	(3,3)	(-60,34)	(-59,5)	(-145,1)	(-49,0)	(-54,0)	(-72,1)	(-62,0)	(-57,0)	(-70,0)	(1,0)	(1,0)	
L1D 62>	(-60,77)	(-62,69)	(0,21)	(4,83)	(-59,4)	(1,0)	(-146,0)	(-66,0)	(2,0)	(1,0)	(1,0)	(1,0)	(1,0)	(1,0)	(1,0)	(1,0)	
L1D 63>	(-13,57)	(0,79)	(1,10)	(2,28)	(-147,6)	(-67,1)	(-64,0)	(-59,4)	(-60,2)	(-81,3)	(-62,0)	(-77,0)	(1,0)	(1,0)	(1,0)	(1,0)	
L1D 64>	(0,45)	(-62,109)	(-64,57)	(-17,0)	(-59,10)	(4,73)	(-79,4)	(-63,4)	(2,17)	(-148,0)	(1,0)	(1,0)	(1,0)	(1,0)	(1,0)	(1,0)	
L1D 65>	(16,27)	(0,94)	(1,120)	(-75,31)	(-50,0)	(2,7)	(-62,2)	(-149,16)	(3,0)	(-60,0)	(-57,0)	(1,0)	(1,0)	(1,0)	(1,0)	(1,0)	
L1D 66>	(0,13)	(-66,78)	(4,15)	(-64,69)	(-44,0)	(-150,2)	(35,0)	(-19,0)	(2,3)	(1,0)	(1,0)	(1,0)	(1,0)	(1,0)	(1,0)	(1,0)	
L1D 67>	(2,15)	(0,44)	(1,47)	(-60,18)	(-68,5)	(-63,5)	(-118,1)	(-70,1)	(1,0)	(1,0)	(1,0)	(1,0)	(1,0)	(1,0)	(1,0)	(1,0)	
L1D 68>	(0,14)	(-62,1)	(-66,43)	(-68,94)	(4,111)	(-81,14)	(-67,3)	(1,1)	(-1,0)	(-72,0)	(1,0)	(1,0)	(1,0)	(1,0)	(1,0)	(1,0)	
L1D 69>	(0,10)	(1,19)	(-68,71)	(2,19)	(-34,2)	(3,1)	(-79,0)	(-65,0)	(-67,4)	(-66,2)	(168,0)	(-70,0)	(1,0)	(1,0)	(1,0)	(1,0)	
L1D 70>	(-68,28)	(-70,82)	(0,25)	(2,10)	(-69,67)	(-27,32)	(4,40)	(-63,25)	(-34,0)	(1,15)	(3,4)	(-83,0)	(1,0)	(1,0)	(1,0)	(1,0)	
L1D 71>	(0,2)	(-81,7)	(1,24)	(2,8)	(-70,106)	(-34,13)	(-43,1)	(-67,7)	(-72,2)	(-75,2)	(-83,1)	(1,0)	(1,0)	(1,0)	(1,0)	(1,0)	
L1D 72>	(0,5)	(-70,121)	(-72,107)	(2,2)	(4,59)	(1,10)	(-65,5)	(-34,1)	(-84,0)	(-82,0)	(-83,0)	(1,0)	(1,0)	(1,0)	(1,0)	(1,0)	
L1D 73>	(-1,5)	(-77,1)	(0,69)	(-72,73)	(1,89)	(-70,13)	(2,35)	(3,3)	(-34,4)	(-69,2)	(19,39)	(-74,6)	(-83,1)	(35,1)	(4,1)	(1,0)	
L1D 74>	(-74,120)	(0,13)	(-72,95)	(4,48)	(-70,0)	(-34,3)	(2,3)	(-78,8)	(-83,0)	(-25,0)	(1,1)	(1,0)	(1,0)	(1,0)	(1,0)	(1,0)	
L1D 75>	(-79,37)	(-25,1)	(0,33)	(1,19)	(-80,1)	(-83,75)	(147,11)	(-76,4)	(-34,4)	(2,3)	(-96,0)	(-78,6)	(-71,3)	(-1,1)	(1,0)	(1,0)	
L1D 76>	(0,24)	(-74,30)	(-76,83)	(4,60)	(-71,0)	(2,0)	(-80,0)	(-34,0)	(-84,2)	(-75,0)	(-77,0)	(1,0)	(1,0)	(1,0)	(1,0)	(1,0)	
L1D 77>	(1,94)	(2,74)	(-74,13)	(-82,4)	(0,38)	(-103,1)	(-75,22)	(-27,3)	(-76,19)	(-73,1)	(-84,4)	(-81,10)	(3,11)	(-85,99)	(-21,1)	(-78,5)	
L1D 78>	(-76,113)	(-78,60)	(0,16)	(1,20)	(4,80)	(-86,30)	(-82,0)	(2,0)	(-79,1)	(-28,0)	(-85,0)	(1,0)	(1,0)	(1,0)	(1,0)	(1,0)	
L1D 79>	(-1,5)	(1,18)	(-78,107)	(0,7)	(17,106)	(-76,27)	(14,89)	(5,10)	(-80,3)	(-86,2)	(13,4)	(11,6)	(-75,4)	(-83,2)	(-57,1)	(150,1)	
L1D 80>	(-78,92)	(-80,70)	(0,5)	(4,77)	(-77,1)	(-93,0)	(-84,0)	(-69,0)	(1,0)	(1,0)	(1,0)	(1,0)	(1,0)	(1,0)	(1,0)	(1,0)	
L1D 81>	(-78,26)	(0,49)	(1,13)	(2,38)	(-77,3)	(3,4)	(1,0)	(1,0)	(1,0)	(1,0)	(1,0)	(1,0)	(1,0)	(1,0)	(1,0)	(1,0)	
L1D 82>	(0,9)	(-80,115)	(-82,38)	(4,21)	(2,5)	(-79,1)	(-55,6)	(1,0)	(1,0)	(1,0)	(1,0)	(1,0)	(1,0)	(1,0)	(1,0)	(1,0)	
L1D 83>	(1,40)	(0,60)	(2,2)	(-335,1)	(84,43)	(-84,12)	(-83,121)	(-419,0)	(-79,4)	(-251,12)	(-168,1)	(85,0)	(1,0)	(1,0)	(1,0)	(1,0)	
L1D 84>	(84,39)	(-419,8)	(-84,121)	(0,48)	(1,3)	(-1,18)	(83,2)	(-83,26)	(-420,0)	(-418,0)	(-125,0)	(4,21)	(168,0)	(-168,0)	(-82,7)	(-251,0)	
L1D 85>	(0,22)	(1,81)	(2,51)	(-1,30)	(-84,43)	(83,12)	(-336,2)	(-169,7)	(-83,34)	(-252,1)	(-85,10)	(-168,1)	(-325,1)	(-360,1)	(-3,1)	(1,0)	
L1D 86>	(-84,70)	(-86,89)	(-246,9)	(-27,92)	(-62,16)	(-1,3)	(2,24)	(-65,4)	(-64,10)	(0,5)	(-99,0)	(-83,0)	(1,0)	(1,0)	(1,0)	(1,0)	
L1D 87>	(1,23)	(0,11)	(-206,1)	(-230,1)	(-228,1)	(-216,1)	(-83,3)	(-197,1)	(-191,1)	(-189,1)	(-188,1)	(-84,1)	(-181,1)	(-92,1)	(-250,1)	(-239,1)	
L1D 88>	(-86,68)	(-202,1)	(8,0)	(-208,0)	(-207,0)	(-205,0)	(-204,0)	(-203,0)	(-216,0)	(-215,0)	(-213,0)	(0,1)	(1,0)	(-212,0)	(-256,0)	(-255,0)	
L1D 89>	(0,9)	(-87,1)	(-3,19)	(4,6)	(-84,8)	(1,0)	(1,0)	(1,0)	(1,0)	(1,0)	(1,0)	(1,0)	(1,0)	(1,0)	(1,0)	(1,0)	
L1D 90>	(0,13)	(-87,1)	(4,45)	(-88,57)	(2,8)	(-125,5)	(8,1)	(1,0)	(1,0)	(1,0)	(1,0)	(1,0)	(1,0)	(1,0)	(1,0)	(1,0)	
L1D 91>	(0,108)	(14,8)	(4,54)	(-89,97)	(8,1)	(1,1)	(1,0)	(1,0)	(1,0)	(1,0)	(1,0)	(1,0)	(1,0)	(1,0)	(1,0)	(1,0)	
L1D 92>	(0,19)	(-92,96)	(-2,2)	(4,7)	(-88,12)	(-90,21)	(-126,1)	(8,0)	(1,0)	(1,0)	(1,0)	(1,0)	(1,0)	(1,0)	(1,0)	(1,0)	
L1D 93>	(0,115)	(-93,78)	(-89,23)	(-112,108)	(4,35)	(-91,90)	(88,1)	(-3,1)	(1,0)	(1,0)	(1,0)	(1,0)	(1,0)	(1,0)	(1,0)	(1,0)	
L1D 94>	(0,9)	(-94,72)	(1,5)	(4,39)	(-92,24)	(-100,3)	(-18,1)	(1,0)	(1,0)	(1,0)	(1,0)	(1,0)	(1,0)	(1,0)	(1,0)	(1,0)	
L1D 95>	(0,23)	(-96,7)	(-94,127)	(-95,79)	(2,3)	(-101,35)	(-93,85)	(4,37)	(1,1)	(1,0)	(1,0)	(1,0)	(1,0)	(1,0)	(1,0)	(1,0)	
L1D 96>	(0,4)	(-96,125)	(-94,79)	(-1,29)	(-92,39)	(-20,22)	(8,7)	(-100,7)	(4,11)	(-90,0)	(-97,5)	(88,0)	(1,0)	(1,0)	(1,0)	(1,0)	
L1D 97>	(0,42)	(-1,32)	(-95,41)	(-97,116)	(-93,22)	(8,6)	(-101,12)	(4,8)	(2,3)	(-67,1)	(-58,1)	(1,0)	(1,0)	(1,0)	(1,0)	(1,0)	
L1D 98>	(1,2)	(0,10)	(-96,106)	(-98,95)	(-4,29)	(4,54)	(-97,1)	(1,0)	(1,0)	(1,0)	(1,0)	(1,0)	(1,0)	(1,0)	(1,0)	(1,0)	
L1D 99>	(-2,36)	(0,9)	(-97,72)	(-99,85)	(4,25)	(1,0)	(1,0)	(1,0)	(1,0)	(1,0)	(1,0)	(1,0)	(1,0)	(1,0)	(1,0)	(1,0)	
L1D 100>	(-98,111)	(-100,103)	(174,1)	(0,19)	(-122,0)	(-96,36)	(4,10)	(-104,1)	(1,0)	(88,0)	(-101,39)	(1,0)	(1,0)	(1,0)	(1,0)	(1,0)	
L1D 101>	(0,56)	(-99,104)	(-101,105)	(-108,0)	(3,12)	(-97,32)	(4,10)	(88,0)	(-105,1)	(-100,32)	(-327,0)	(1,0)	(1,0)	(1,0)	(1,0)	(1,0)	
L1D 102>	(0,16)	(-100,64)	(-102,90)	(1,23)	(2,1)	(-276,3)	(-108,3)	(4,19)	(-116,0)	(-22,0)	(1,0)	(1,0)	(1,0)	(1,0)	(1,0)	(1,0)	
L1D 103>	(0,47)	(-101,114)	(-103,115)	(-278,5)	(-109,9)	(4,29)	(-282,4)	(1,1)	(1,0)	(1,0)	(1,0)	(1,0)	(1,0)	(1,0)	(1,0)	(1,0)	
L1D 104>	(-93,0)	(-102,82)	(-104,105)	(-108,53)	(-276,46)	(0,37)	(4,10)	(-22,11)	(-280,3)	(-115,2)	(88,1)	(1,0)	(-116,2)	(-100,1)	(-69,0)	(-126,0)	
L1D 105>	(0,39)	(-105,98)	(-103,68)	(-109,44)	(-278,46)	(4,12)	(-282,12)	(-117,1)	(1,0)	(1,0)	(1,0)	(1,0)	(1,0)	(1,0)	(1,0)	(1,0)	
L1D 106>	(-104,77)	(-106,82)	(-120,16)	(-119,46)	(-26,2)	(-28,2)	(-78,19)	(1,50)	(2,7)	(-126,1)	(0,1)	(1,0)	(1,0)	(1,0)	(1,0)	(1,0)	
L1D 107>	(-110,16)	(-103,5)	(-105,74)	(-107,96)	(0,2)	(-161,2)	(-122,20)	(-121,10)	(-159,1)	(1,1)	(2,3)	(-286,2)	(-28,2)	(-48,1)	(-34,1)	(1,0)	
L1D 108>	(-130,1)	(-98,0)	(-106,68)	(-156,0)	(88,1)	(1,0)	(1,0)	(1,0)	(1,0)	(1,0)	(1,0)	(1,0)	(1,0)	(1,0)	(1,0)	(1,0)	
L1D 109>	(-107,72)	(88,0)	(-78,23)	(1,0)	(1,0)	(1,0)	(1,0)	(1,0)	(1,0)	(1,0)	(1,0)	(1,0)	(1,0)	(1,0)	(1,0)	(1,0)	
L1D 110>	(-110,2)	(1,63)	(2,9)	(1,0)	(1,0)	(1,0)	(1,0)	(1,0)	(1,0)	(1,0)	(1,0)	(1,0)	(1,0)	(1,0)	(1,0)	(1,0)	
L1D 111>	(-48,5)	(1,1)	(1,0)	(1,0)	(1,0)	(1,0)	(1,0)	(1,0)	(1,0)	(1,0)	(1,0)	(1,0)	(1,0)	(1,0)	(1,0)	(1,0)	
L1D 112>	(-102,2)	(88,2)	(-134,1)	(-160,1)	(1,0)	(1,0)	(1,0)	(1,0)	(1,0)	(1,0)	(1,0)	(1,0)	(1,0)	(1,0)	(1,0)	(1,0)	
L1D 113>	(0,14)	(1,5)	(88,1)	(1,0)	(1,0)	(1,0)	(1,0)	(1,0)	(1,0)	(1,0)	(1,0)	(1,0)	(1,0)	(1,0)	(1,0)	(1,0)	
L1D 114>	(-113,25)	(0,2)	(1,59)	(2,11)	(-145,1)	(3,1)	(-114,1)	(-1,1)	(1,0)	(1,0)	(1,0)	(1,0)	(1,0)	(1,0)	(1,0)	(1,0)	
L1D 115>	(0,2)	(-2,26)	(-1,10)	(-141,6)	(-123,1)	(-142,1)	(1,1)	(1,0)	(1,0)	(1,0)	(1,0)	(1,0)	(1,0)	(1,0)	(1,0)	(1,0)	
L1D 116>	(1,108)	(-143,6)	(52,20)	(-142,5)	(88,4)	(142,2)	(-106,1)	(-123,1)	(1,0)	(1,0)	(1,0)	(1,0)	(1,0)	(1,0)	(1,0)	(1,0)	
L1D 117>	(-204,15)	(-2,1)	(88,2)	(-144,2)	(1,0)	(1,0)	(1,0)	(1,0)	(1,0)	(1,0)	(1,0)	(1,0)	(1,0)	(1,0)	(1,0)	(1,0)	
L1D 118>	(0,2)	(-277,3)	(-97,1)	(-90,1)	(-203,2)	(1,59)	(2,13)	(1,0)	(1,0)	(1,0)	(1,0)	(1,0)	(1,0)	(1,0)	(1,0)	(1,0)	
L1D 119>	(0,1)	(-2,5)	(-1,5)	(88,2)	(1,0)	(1,0)	(1,0)	(1,0)	(1,0)	(1,0)	(1,0)	(1,0)	(1,0)	(1,0)	(1,0)	(1,0)	
L1D 120>	(4,114)	(6,86)	(3,21)	(88,4)	(-165,4)	(-157,6)	(-141,2)	(-110,2)	(1,1)	(1,0)	(1,0)	(1,0)	(1,0)	(1,0)	(1,0)	(1,0)	
L1D 121>	(-121,75)	(-126,15)	(0,43)	(88,1)	(1,0)	(1,0)	(1,0)	(1,0)	(1,0)	(1,0)	(1,0)	(1,0)	(1,0)	(1,0)	(1,0)	(1,0)	
L1D 122>	(-119,5)	(0,88)	(-285,2)	(-102,20)	(88,1)	(1,107)	(3,29)	(2,13)	(-122,1)	(-286,1)	(1,0)	(1,0)	(1,0)	(1,0)	(1,0)	(1,0)	
L1D 123>	(0,81)	(148,1)	(61,15)	(-123,50)	(62,1)	(-76,3)	(93,2)	(-74,1)	(147,1)	(1,5)	(2,52)	(-115,6)	(4,46)	(-2,3)	(-126,20)	(3,5)	
L1D 124>	(-126,71)	(3,0)	(2,24)	(19,6)	(-146,1)	(150,1)	(0,2)	(88,1)	(-169,0)	(-161,1)	(56,2)	(4,0)	(-116,0)	(1,0)	(1,0)	(1,0)	
L1D 125>	(-141,1)	(88,3)	(-1,1)	(1,0)	(1,0)	(1,0)	(1,0)	(1,0)	(1,0)	(1,0)	(1,0)	(1,0)	(1,0)	(1,0)	(1,0)	(1,0)	
L1D 126>	(0,6)	(-15,108)	(-122,1)	(1,63)	(2,21)	(-294,1)	(-293,7)	(1,0)	(1,0)	(1,0)	(1,0)	(1,0)	(1,0)	(1,0)	(1,0)	(1,0)	
L1D 127>	(0,25)	(-2,4)	(-1,3)	(4,4)	(88,1)	(-74,1)	(-76,1)	(1,0)	(1,0)	(1,0)	(1,0)	(1,0)	(1,0)	(1,0)	(1,0)	(1,0)	
L1D 128>	(-34,3)	(0,15)	(-72,1)	(1,1)	(88,3)	(-165,3)	(154,3)	(-117,1)	(-173,3)	(-118,1)	(-76,2)	(148,1)	(-74,1)	(1,0)	(1,0)	(1,0)	
L1D 129>	(1,3)	(14,3)	(-146,3)	(0,103)	(88,2)	(2,2)	(1,0)	(1,0)	(1,0)	(1,0)	(1,0)	(1,0)	(1,0)	(1,0)	(1,0)	(1,0)	
L1D 130>	(0,70)	(1,125)	(14,3)	(4,4)	(-301,2)	(17,10)	(16,6)	(2,35)	(3,13)	(-130,4)	(15,6)	(-124,1)	(88,1)	(1,0)	(1,0)	(1,0)	
L1D 131>	(17,15)	(20,2)	(18,28)	(19,7)	(-2,7)	(1,2)	(1,0)	(1,0)	(1,0)	(1,0)	(1,0)	(1,0)	(1,0)	(1,0)	(1,0)	(1,0)	
L1D 132>	(0,44)	(1,6)	(158,12)	(-124,1)	(-153,1)	(-122,3)	(-57,9)	(88,3)	(-169,7)	(-154,5)	(-121,1)	(-177,1)	(1,0)	(1,0)	(1,0)	(1,0)	
L1D 133>	(-1,5)	(-201,18)	(88,3)	(-217,1)	(182,2)	(-58,1)	(1,0)	(1,0)	(1,0)	(1,0)	(1,0)	(1,0)	(1,0)	(1,0)	(1,0)	(1,0)	
L1D 134>	(-114,0)	(1,88)	(2,32)	(-309,0)	(88,0)	(1,0)	(1,0)	(1,0)	(1,0)	(1,0)	(1,0)	(1,0)	(1,0)	(1,0)	(1,0)	(1,0)	
L1D 135>	(0,1)	(-125,1)	(88,1)	(-2,1)	(1,0)	(1,0)	(1,0)	(1,0)	(1,0)	(1,0)	(1,0)	(1,0)	(1,0)	(1,0)	(1,0)	(1,0)	
L1D 136>	(162,6)	(88,3)	(-126,2)	(-173,1)	(-125,1)	(-128,1)	(-158,1)	(-184,1)	(1,0)	(1,0)	(1,0)	(1,0)	(1,0)	(1,0)	(1,0)	(1,0)	
L1D 137>	(8,3)	(88,2)	(1,0)	(1,0)	(1,0)	(1,0)	(1,0)	(1,0)	(1,0)	(1,0)	(1,0)	(1,0)	(1,0)	(1,0)	(1,0)	(1,0)	
L1D 138>	(2,12)	(1,69)	(3,3)	(-138,0)	(-318,0)	(-317,1)	(-181,0)	(1,0)	(1,0)	(1,0)	(1,0)	(1,0)	(1,0)	(1,0)	(1,0)	(1,0)	
L1D 139>	(-6,1)	(-2,4)	(-122,2)	(1,2)	(-207,19)	(-123,1)	(1,0)	(1,0)	(1,0)	(1,0)	(1,0)	(1,0)	(1,0)	(1,0)	(1,0)	(1,0)	
[...]
L1D 473>	(1,0)	(1,0)	(1,0)	(1,0)	(1,0)	(1,0)	(1,0)	(1,0)	(1,0)	(1,0)	(1,0)	(1,0)	(1,0)	(1,0)	(1,0)	(1,0)	
L1D 474>	(1,0)	(1,0)	(1,0)	(1,0)	(1,0)	(1,0)	(1,0)	(1,0)	(1,0)	(1,0)	(1,0)	(1,0)	(1,0)	(1,0)	(1,0)	(1,0)	
L1D 475>	(1,0)	(1,0)	(1,0)	(1,0)	(1,0)	(1,0)	(1,0)	(1,0)	(1,0)	(1,0)	(1,0)	(1,0)	(1,0)	(1,0)	(1,0)	(1,0)	
L1D 476>	(1,0)	(1,0)	(1,0)	(1,0)	(1,0)	(1,0)	(1,0)	(1,0)	(1,0)	(1,0)	(1,0)	(1,0)	(1,0)	(1,0)	(1,0)	(1,0)	
L1D 477>	(1,0)	(1,0)	(1,0)	(1,0)	(1,0)	(1,0)	(1,0)	(1,0)	(1,0)	(1,0)	(1,0)	(1,0)	(1,0)	(1,0)	(1,0)	(1,0)	
L1D 478>	(1,0)	(1,0)	(1,0)	(1,0)	(1,0)	(1,0)	(1,0)	(1,0)	(1,0)	(1,0)	(1,0)	(1,0)	(1,0)	(1,0)	(1,0)	(1,0)	
L1D 479>	(1,0)	(1,0)	(1,0)	(1,0)	(1,0)	(1,0)	(1,0)	(1,0)	(1,0)	(1,0)	(1,0)	(1,0)	(1,0)	(1,0)	(1,0)	(1,0)	
L1D 480>	(1,0)	(1,0)	(1,0)	(1,0)	(1,0)	(1,0)	(1,0)	(1,0)	(1,0)	(1,0)	(1,0)	(1,0)	(1,0)	(1,0)	(1,0)	(1,0)	
L1D 481>	(1,0)	(1,0)	(1,0)	(1,0)	(1,0)	(1,0)	(1,0)	(1,0)	(1,0)	(1,0)	(1,0)	(1,0)	(1,0)	(1,0)	(1,0)	(1,0)	
L1D 482>	(1,0)	(1,0)	(1,0)	(1,0)	(1,0)	(1,0)	(1,0)	(1,0)	(1,0)	(1,0)	(1,0)	(1,0)	(1,0)	(1,0)	(1,0)	(1,0)	
L1D 483>	(1,0)	(1,0)	(1,0)	(1,0)	(1,0)	(1,0)	(1,0)	(1,0)	(1,0)	(1,0)	(1,0)	(1,0)	(1,0)	(1,0)	(1,0)	(1,0)	
L1D 484>	(1,0)	(1,0)	(1,0)	(1,0)	(1,0)	(1,0)	(1,0)	(1,0)	(1,0)	(1,0)	(1,0)	(1,0)	(1,0)	(1,0)	(1,0)	(1,0)	
L1D 485>	(1,0)	(1,0)	(1,0)	(1,0)	(1,0)	(1,0)	(1,0)	(1,0)	(1,0)	(1,0)	(1,0)	(1,0)	(1,0)	(1,0)	(1,0)	(1,0)	
L1D 486>	(1,0)	(1,0)	(1,0)	(1,0)	(1,0)	(1,0)	(1,0)	(1,0)	(1,0)	(1,0)	(1,0)	(1,0)	(1,0)	(1,0)	(1,0)	(1,0)	
L1D 487>	(1,0)	(1,0)	(1,0)	(1,0)	(1,0)	(1,0)	(1,0)	(1,0)	(1,0)	(1,0)	(1,0)	(1,0)	(1,0)	(1,0)	(1,0)	(1,0)	
L1D 488>	(1,0)	(1,0)	(1,0)	(1,0)	(1,0)	(1,0)	(1,0)	(1,0)	(1,0)	(1,0)	(1,0)	(1,0)	(1,0)	(1,0)	(1,0)	(1,0)	
L1D 489>	(1,0)	(1,0)	(1,0)	(1,0)	(1,0)	(1,0)	(1,0)	(1,0)	(1,0)	(1,0)	(1,0)	(1,0)	(1,0)	(1,0)	(1,0)	(1,0)	
L1D 490>	(1,0)	(1,0)	(1,0)	(1,0)	(1,0)	(1,0)	(1,0)	(1,0)	(1,0)	(1,0)	(1,0)	(1,0)	(1,0)	(1,0)	(1,0)	(1,0)	
L1D 491>	(1,0)	(1,0)	(1,0)	(1,0)	(1,0)	(1,0)	(1,0)	(1,0)	(1,0)	(1,0)	(1,0)	(1,0)	(1,0)	(1,0)	(1,0)	(1,0)	
L1D 492>	(1,0)	(1,0)	(1,0)	(1,0)	(1,0)	(1,0)	(1,0)	(1,0)	(1,0)	(1,0)	(1,0)	(1,0)	(1,0)	(1,0)	(1,0)	(1,0)	
L1D 493>	(1,0)	(1,0)	(1,0)	(1,0)	(1,0)	(1,0)	(1,0)	(1,0)	(1,0)	(1,0)	(1,0)	(1,0)	(1,0)	(1,0)	(1,0)	(1,0)	
L1D 494>	(1,0)	(1,0)	(1,0)	(1,0)	(1,0)	(1,0)	(1,0)	(1,0)	(1,0)	(1,0)	(1,0)	(1,0)	(1,0)	(1,0)	(1,0)	(1,0)	
L1D 495>	(1,0)	(1,0)	(1,0)	(1,0)	(1,0)	(1,0)	(1,0)	(1,0)	(1,0)	(1,0)	(1,0)	(1,0)	(1,0)	(1,0)	(1,0)	(1,0)	
L1D 496>	(1,0)	(1,0)	(1,0)	(1,0)	(1,0)	(1,0)	(1,0)	(1,0)	(1,0)	(1,0)	(1,0)	(1,0)	(1,0)	(1,0)	(1,0)	(1,0)	
L1D 497>	(1,0)	(1,0)	(1,0)	(1,0)	(1,0)	(1,0)	(1,0)	(1,0)	(1,0)	(1,0)	(1,0)	(1,0)	(1,0)	(1,0)	(1,0)	(1,0)	
L1D 498>	(1,0)	(1,0)	(1,0)	(1,0)	(1,0)	(1,0)	(1,0)	(1,0)	(1,0)	(1,0)	(1,0)	(1,0)	(1,0)	(1,0)	(1,0)	(1,0)	
L1D 499>	(1,0)	(1,0)	(1,0)	(1,0)	(1,0)	(1,0)	(1,0)	(1,0)	(1,0)	(1,0)	(1,0)	(1,0)	(1,0)	(1,0)	(1,0)	(1,0)	
L1D 500>	(1,0)	(1,0)	(1,0)	(1,0)	(1,0)	(1,0)	(1,0)	(1,0)	(1,0)	(1,0)	(1,0)	(1,0)	(1,0)	(1,0)	(1,0)	(1,0)	
L1D 501>	(1,0)	(1,0)	(1,0)	(1,0)	(1,0)	(1,0)	(1,0)	(1,0)	(1,0)	(1,0)	(1,0)	(1,0)	(1,0)	(1,0)	(1,0)	(1,0)	
L1D 502>	(1,0)	(1,0)	(1,0)	(1,0)	(1,0)	(1,0)	(1,0)	(1,0)	(1,0)	(1,0)	(1,0)	(1,0)	(1,0)	(1,0)	(1,0)	(1,0)	
L1D 503>	(-168,1)	(1,0)	(1,0)	(1,0)	(1,0)	(1,0)	(1,0)	(1,0)	(1,0)	(1,0)	(1,0)	(1,0)	(1,0)	(1,0)	(1,0)	(1,0)	
L1D 504>	(-168,71)	(-336,74)	(-503,2)	(-167,2)	(-328,0)	(0,2)	(-504,8)	(1,0)	(1,0)	(1,0)	(1,0)	(1,0)	(1,0)	(1,0)	(1,0)	(1,0)	
L1D 505>	(-168,3)	(1,0)	(1,0)	(1,0)	(1,0)	(1,0)	(1,0)	(1,0)	(1,0)	(1,0)	(1,0)	(1,0)	(1,0)	(1,0)	(1,0)	(1,0)	
L1D 506>	(1,0)	(1,0)	(1,0)	(1,0)	(1,0)	(1,0)	(1,0)	(1,0)	(1,0)	(1,0)	(1,0)	(1,0)	(1,0)	(1,0)	(1,0)	(1,0)	
L1D 507>	(1,0)	(1,0)	(1,0)	(1,0)	(1,0)	(1,0)	(1,0)	(1,0)	(1,0)	(1,0)	(1,0)	(1,0)	(1,0)	(1,0)	(1,0)	(1,0)	
L1D 508>	(1,0)	(1,0)	(1,0)	(1,0)	(1,0)	(1,0)	(1,0)	(1,0)	(1,0)	(1,0)	(1,0)	(1,0)	(1,0)	(1,0)	(1,0)	(1,0)	
L1D 509>	(1,0)	(1,0)	(1,0)	(1,0)	(1,0)	(1,0)	(1,0)	(1,0)	(1,0)	(1,0)	(1,0)	(1,0)	(1,0)	(1,0)	(1,0)	(1,0)	
L1D 510>	(1,0)	(1,0)	(1,0)	(1,0)	(1,0)	(1,0)	(1,0)	(1,0)	(1,0)	(1,0)	(1,0)	(1,0)	(1,0)	(1,0)	(1,0)	(1,0)	
L1D 511>	(1,0)	(1,0)	(1,0)	(1,0)	(1,0)	(1,0)	(1,0)	(1,0)	(1,0)	(1,0)	(1,0)	(1,0)	(1,0)	(1,0)	(1,0)	(1,0)	

L2C -64>	(1,226)	(11,14)	(-45,1)	(-3,16)	(22,9)	(4,7)	(0,22)	(-20,25)	(2,21)	(-42,49)	(3,12)	(-4,27)	(20,29)	(21,119)	(16,17)	(-24,17)	
L2C -63>	(1,127)	(21,5)	(42,1)	(20,2)	(26,1)	(1,0)	(1,0)	(1,0)	(1,0)	(1,0)	(1,0)	(1,0)	(1,0)	(1,0)	(1,0)	(1,0)	
L2C -62>	(1,7)	(21,19)	(2,1)	(10,1)	(42,1)	(19,1)	(20,1)	(1,0)	(1,0)	(1,0)	(1,0)	(1,0)	(1,0)	(1,0)	(1,0)	(1,0)	
L2C -61>	(1,150)	(21,4)	(63,1)	(1,0)	(1,0)	(1,0)	(1,0)	(1,0)	(1,0)	(1,0)	(1,0)	(1,0)	(1,0)	(1,0)	(1,0)	(1,0)	
L2C -60>	(1,1)	(20,1)	(-1,1)	(21,1)	(16,1)	(1,0)	(1,0)	(1,0)	(1,0)	(1,0)	(1,0)	(1,0)	(1,0)	(1,0)	(1,0)	(1,0)	
L2C -59>	(1,17)	(21,3)	(15,1)	(1,0)	(1,0)	(1,0)	(1,0)	(1,0)	(1,0)	(1,0)	(1,0)	(1,0)	(1,0)	(1,0)	(1,0)	(1,0)	
L2C -58>	(1,89)	(14,1)	(21,6)	(11,1)	(8,1)	(26,2)	(1,0)	(1,0)	(1,0)	(1,0)	(1,0)	(1,0)	(1,0)	(1,0)	(1,0)	(1,0)	
L2C -57>	(10,7)	(1,7)	(11,3)	(15,1)	(25,1)	(2,3)	(21,1)	(1,0)	(1,0)	(1,0)	(1,0)	(1,0)	(1,0)	(1,0)	(1,0)	(1,0)	
L2C -56>	(21,1)	(1,2)	(24,1)	(43,1)	(1,0)	(1,0)	(1,0)	(1,0)	(1,0)	(1,0)	(1,0)	(1,0)	(1,0)	(1,0)	(1,0)	(1,0)	
L2C -55>	(25,5)	(1,2)	(55,1)	(10,3)	(59,1)	(26,1)	(41,1)	(11,1)	(1,0)	(1,0)	(1,0)	(1,0)	(1,0)	(1,0)	(1,0)	(1,0)	
L2C -54>	(25,1)	(21,3)	(17,1)	(38,1)	(11,1)	(1,0)	(1,0)	(1,0)	(1,0)	(1,0)	(1,0)	(1,0)	(1,0)	(1,0)	(1,0)	(1,0)	
L2C -53>	(25,1)	(0,1)	(11,35)	(22,1)	(1,9)	(10,1)	(32,3)	(5,2)	(3,1)	(21,2)	(1,0)	(1,0)	(1,0)	(1,0)	(1,0)	(1,0)	
L2C -52>	(1,41)	(25,1)	(10,48)	(21,12)	(45,2)	(11,8)	(4,1)	(5,2)	(1,0)	(1,0)	(1,0)	(1,0)	(1,0)	(1,0)	(1,0)	(1,0)	
L2C -51>	(1,88)	(52,1)	(25,3)	(51,19)	(50,6)	(0,2)	(49,3)	(26,7)	(21,3)	(54,1)	(1,0)	(1,0)	(1,0)	(1,0)	(1,0)	(1,0)	
L2C -50>	(1,21)	(45,2)	(50,2)	(-2,1)	(49,1)	(43,1)	(21,1)	(2,1)	(51,1)	(41,1)	(29,1)	(1,0)	(1,0)	(1,0)	(1,0)	(1,0)	
L2C -49>	(1,15)	(21,2)	(0,1)	(25,1)	(1,0)	(1,0)	(1,0)	(1,0)	(1,0)	(1,0)	(1,0)	(1,0)	(1,0)	(1,0)	(1,0)	(1,0)	
L2C -48>	(1,121)	(21,29)	(25,1)	(-13,5)	(24,1)	(6,2)	(22,1)	(1,0)	(1,0)	(1,0)	(1,0)	(1,0)	(1,0)	(1,0)	(1,0)	(1,0)	
L2C -47>	(21,75)	(1,26)	(11,2)	(-14,1)	(25,2)	(48,5)	(-4,1)	(16,2)	(42,6)	(20,1)	(43,2)	(2,6)	(8,1)	(54,1)	(22,7)	(26,2)	
L2C -46>	(21,40)	(6,0)	(1,128)	(20,5)	(22,1)	(2,4)	(42,2)	(3,1)	(49,0)	(10,1)	(0,2)	(-1,1)	(4,0)	(16,0)	(-13,1)	(8,0)	
L2C -45>	(4,1)	(1,89)	(21,61)	(0,1)	(44,1)	(46,5)	(17,1)	(15,2)	(2,4)	(10,2)	(11,3)	(20,3)	(25,1)	(9,1)	(42,3)	(40,1)	
L2C -44>	(21,59)	(2,8)	(1,102)	(45,3)	(20,2)	(-3,4)	(4,2)	(27,1)	(-2,3)	(19,2)	(10,3)	(11,2)	(0,3)	(-4,1)	(-19,1)	(40,1)	
L2C -43>	(21,72)	(1,138)	(10,2)	(32,2)	(5,1)	(-2,1)	(43,1)	(2,11)	(44,2)	(4,4)	(46,3)	(23,2)	(16,7)	(45,1)	(3,1)	(9,2)	
L2C -42>	(0,1)	(21,232)	(22,2)	(10,5)	(42,3)	(4,1)	(13,2)	(1,43)	(11,2)	(40,1)	(16,1)	(-1,4)	(24,1)	(-5,1)	(2,2)	(43,3)	
L2C -41>	(21,183)	(1,161)	(43,1)	(38,1)	(12,1)	(19,1)	(23,1)	(-2,1)	(45,1)	(13,4)	(17,1)	(2,6)	(42,4)	(41,1)	(4,3)	(20,5)	
L2C -40>	(1,117)	(20,3)	(21,14)	(-1,3)	(-4,2)	(4,4)	(42,1)	(2,5)	(23,1)	(13,2)	(18,3)	(10,2)	(6,1)	(9,1)	(41,3)	(-3,6)	
L2C -39>	(2,74)	(1,54)	(19,6)	(21,11)	(41,1)	(39,1)	(18,3)	(-12,1)	(16,1)	(20,1)	(43,1)	(27,1)	(-2,1)	(9,1)	(40,1)	(1,0)	
L2C -38>	(10,33)	(1,62)	(2,6)	(6,1)	(38,3)	(0,4)	(-4,3)	(21,3)	(12,4)	(-13,6)	(3,3)	(11,5)	(8,15)	(9,5)	(4,2)	(7,3)	
L2C -37>	(2,8)	(1,58)	(18,2)	(7,1)	(21,14)	(26,1)	(11,6)	(17,11)	(3,4)	(20,3)	(-10,1)	(-1,4)	(9,1)	(15,2)	(13,1)	(8,1)	
L2C -36>	(1,105)	(15,6)	(14,1)	(10,6)	(20,1)	(17,1)	(11,1)	(16,2)	(21,12)	(19,1)	(22,1)	(38,1)	(2,2)	(-10,1)	(13,2)	(6,1)	
L2C -35>	(1,132)	(3,0)	(-4,0)	(11,1)	(20,0)	(34,0)	(21,1)	(5,0)	(33,0)	(26,0)	(39,0)	(-10,0)	(-1,0)	(40,0)	(4,0)	(1,0)	
L2C -34>	(1,68)	(2,6)	(11,2)	(20,1)	(3,5)	(-3,1)	(10,3)	(19,1)	(16,1)	(38,1)	(4,1)	(13,1)	(18,1)	(22,1)	(21,1)	(-1,1)	
L2C -33>	(1,26)	(3,1)	(21,3)	(-4,1)	(22,1)	(11,3)	(24,1)	(34,1)	(8,2)	(10,1)	(4,2)	(-1,3)	(28,1)	(16,1)	(-13,2)	(5,1)	
L2C -32>	(11,81)	(1,65)	(21,14)	(-9,2)	(15,2)	(-3,2)	(2,9)	(5,2)	(3,3)	(-10,3)	(42,3)	(10,3)	(0,2)	(4,1)	(41,1)	(-1,1)	
L2C -31>	(10,121)	(21,35)	(42,2)	(20,4)	(11,28)	(1,44)	(-10,2)	(32,4)	(-1,2)	(2,3)	(-3,1)	(14,1)	(9,3)	(16,1)	(31,1)	(-4,2)	
L2C -30>	(1,133)	(4,4)	(-22,7)	(21,9)	(11,1)	(12,2)	(2,6)	(9,3)	(48,2)	(17,2)	(16,2)	(-8,11)	(-2,1)	(13,1)	(-3,4)	(32,2)	
L2C -29>	(1,110)	(19,2)	(5,1)	(18,5)	(-3,2)	(-2,2)	(16,3)	(13,3)	(17,1)	(-13,1)	(33,1)	(24,1)	(43,1)	(-10,1)	(42,3)	(11,2)	
L2C -28>	(1,53)	(6,6)	(50,1)	(-3,6)	(4,1)	(9,7)	(0,1)	(-10,8)	(14,1)	(26,1)	(2,2)	(16,2)	(-8,2)	(11,2)	(13,1)	(17,2)	
L2C -27>	(1,219)	(-19,1)	(21,13)	(6,2)	(-10,3)	(54,2)	(-1,3)	(10,1)	(4,16)	(9,21)	(22,4)	(8,1)	(-3,20)	(49,1)	(27,5)	(-20,3)	
L2C -26>	(1,143)	(24,19)	(-20,18)	(23,66)	(19,3)	(26,6)	(10,6)	(-10,3)	(21,79)	(-21,11)	(22,7)	(2,4)	(25,1)	(17,8)	(42,6)	(4,4)	
L2C -25>	(4,10)	(-1,2)	(1,222)	(21,75)	(2,25)	(14,2)	(26,5)	(-20,6)	(42,3)	(24,2)	(17,1)	(20,4)	(-19,2)	(-2,1)	(0,1)	(22,3)	
L2C -24>	(-21,3)	(20,3)	(21,31)	(0,11)	(-20,6)	(25,11)	(1,70)	(33,4)	(22,29)	(-1,3)	(2,5)	(34,4)	(26,2)	(11,2)	(42,2)	(-17,1)	
L2C -23>	(24,5)	(1,108)	(16,16)	(2,11)	(21,38)	(-20,3)	(42,4)	(12,2)	(45,4)	(20,4)	(47,1)	(19,3)	(-1,4)	(41,6)	(33,2)	(22,1)	
L2C -22>	(1,97)	(0,1)	(20,3)	(21,34)	(31,4)	(3,7)	(-7,2)	(-3,2)	(4,14)	(10,5)	(11,8)	(13,3)	(2,14)	(-5,2)	(-20,10)	(5,5)	
L2C -21>	(-21,26)	(43,10)	(-9,5)	(22,35)	(20,16)	(21,210)	(1,236)	(0,12)	(-10,9)	(10,17)	(13,1)	(32,5)	(11,6)	(2,9)	(-22,3)	(-20,9)	
L2C -20>	(42,4)	(21,88)	(1,227)	(0,1)	(14,2)	(41,7)	(20,5)	(3,3)	(16,10)	(-21,1)	(18,1)	(4,4)	(-13,1)	(5,1)	(17,1)	(2,8)	
L2C -19>	(-3,2)	(21,6)	(-5,3)	(1,220)	(-8,2)	(-2,2)	(20,16)	(-23,2)	(19,8)	(2,5)	(10,2)	(3,4)	(-4,3)	(40,3)	(-16,2)	(-25,1)	
L2C -18>	(1,113)	(20,1)	(19,7)	(-22,1)	(-26,2)	(36,1)	(2,3)	(37,2)	(40,1)	(4,1)	(21,3)	(-7,2)	(-6,5)	(-21,1)	(-5,1)	(33,2)	
L2C -17>	(-6,12)	(9,85)	(1,198)	(22,14)	(7,2)	(-46,21)	(2,2)	(-5,4)	(18,4)	(-2,2)	(5,1)	(23,1)	(-30,5)	(34,1)	(19,2)	(-12,1)	
L2C -16>	(1,176)	(14,1)	(22,18)	(3,10)	(11,5)	(2,10)	(-6,5)	(17,9)	(12,1)	(-20,1)	(-15,1)	(-1,2)	(21,2)	(5,1)	(-24,1)	(4,2)	
L2C -15>	(1,87)	(12,3)	(10,3)	(-1,2)	(9,2)	(31,2)	(16,8)	(-7,1)	(25,2)	(3,6)	(19,1)	(5,1)	(-5,6)	(-6,5)	(14,7)	(17,2)	
L2C -14>	(1,188)	(12,1)	(18,12)	(-1,2)	(-7,1)	(-18,1)	(9,1)	(27,2)	(5,3)	(4,5)	(3,3)	(15,1)	(2,4)	(21,1)	(-5,1)	(36,1)	
L2C -13>	(1,150)	(11,11)	(2,3)	(14,16)	(30,1)	(13,1)	(-10,1)	(3,8)	(5,1)	(-22,1)	(29,1)	(-1,6)	(38,2)	(4,12)	(-28,1)	(0,1)	
L2C -12>	(1,113)	(2,6)	(28,8)	(25,3)	(13,14)	(18,21)	(-3,3)	(-2,3)	(9,3)	(-12,4)	(15,4)	(3,5)	(4,5)	(10,4)	(11,2)	(-1,4)	
L2C -11>	(12,3)	(18,1)	(1,163)	(-9,1)	(10,3)	(11,30)	(21,6)	(2,2)	(5,2)	(14,1)	(13,1)	(0,3)	(27,2)	(3,5)	(4,1)	(16,3)	
L2C -10>	(4,1)	(19,5)	(1,154)	(16,13)	(10,69)	(2,14)	(-51,24)	(30,22)	(3,7)	(21,16)	(11,28)	(20,7)	(-31,4)	(-11,3)	(25,8)	(15,5)	
L2C -9>	(1,150)	(-1,3)	(7,5)	(20,1)	(30,4)	(2,6)	(0,2)	(5,10)	(16,2)	(15,1)	(-3,1)	(3,6)	(12,1)	(10,11)	(23,0)	(4,2)	
L2C -8>	(1,193)	(-16,33)	(4,4)	(2,23)	(3,16)	(24,1)	(30,5)	(14,1)	(5,3)	(12,2)	(-8,1)	(-7,1)	(-1,5)	(-15,1)	(-9,4)	(9,1)	
L2C -7>	(1,122)	(-1,43)	(0,7)	(5,4)	(8,16)	(25,8)	(-8,9)	(7,1)	(-5,7)	(2,18)	(-29,2)	(30,3)	(3,14)	(18,10)	(4,2)	(-26,2)	
L2C -6>	(-1,17)	(-8,14)	(13,63)	(1,167)	(4,8)	(-13,1)	(5,6)	(-7,3)	(6,5)	(0,3)	(-19,3)	(21,15)	(3,19)	(2,32)	(-36,2)	(-2,22)	
L2C -5>	(1,130)	(-1,5)	(21,15)	(2,15)	(3,4)	(-21,1)	(0,37)	(6,1)	(11,1)	(-20,6)	(13,1)	(-18,0)	(-8,0)	(22,1)	(5,12)	(-2,3)	
L2C -4>	(21,16)	(2,21)	(5,10)	(-47,3)	(1,165)	(9,5)	(6,2)	(3,13)	(4,7)	(-41,1)	(-1,9)	(-21,1)	(0,9)	(20,1)	(43,1)	(-2,2)	
L2C -3>	(9,10)	(-1,12)	(4,9)	(22,4)	(3,41)	(1,147)	(0,20)	(21,16)	(-19,2)	(-15,1)	(2,10)	(-17,2)	(6,2)	(5,4)	(-2,5)	(-9,1)	
L2C -2>	(-1,14)	(-29,1)	(1,103)	(0,7)	(4,20)	(21,10)	(-8,4)	(-59,9)	(20,3)	(11,6)	(2,14)	(-23,8)	(-11,1)	(-2,9)	(-12,1)	(3,152)	
L2C -1>	(2,105)	(3,26)	(5,6)	(-2,18)	(7,12)	(-27,4)	(21,16)	(-1,21)	(1,154)	(4,34)	(0,10)	(20,13)	(-21,1)	(-9,10)	(12,2)	(22,8)	
L2C 0>	(1,60)	(0,236)	(-19,3)	(2,9)	(21,1)	(-1,1)	(-40,1)	(-10,3)	(-41,1)	(-3,4)	(-20,5)	(3,3)	(10,2)	(-36,1)	(-11,2)	(-21,1)	
L2C 1>	(1,213)	(-48,1)	(6,4)	(2,14)	(5,4)	(17,4)	(-5,2)	(19,3)	(-4,2)	(-30,1)	(-35,1)	(3,7)	(4,4)	(33,1)	(-43,1)	(-8,2)	
L2C 2>	(-10,4)	(-1,6)	(1,219)	(6,5)	(5,4)	(19,2)	(-58,4)	(14,5)	(-14,7)	(3,7)	(2,15)	(4,8)	(-16,6)	(-26,6)	(-45,2)	(-19,1)	
L2C 3>	(1,210)	(2,39)	(-1,6)	(-4,11)	(3,8)	(5,3)	(-50,1)	(-45,1)	(-3,12)	(17,3)	(-28,5)	(-2,29)	(0,2)	(-20,1)	(14,4)	(-51,1)	
L2C 4>	(1,242)	(3,13)	(-26,24)	(2,9)	(-2,7)	(18,1)	(-5,8)	(-21,4)	(17,2)	(-1,7)	(-4,3)	(45,2)	(0,2)	(4,3)	(5,5)	(8,5)	
L2C 5>	(1,207)	(-18,3)	(-2,2)	(-17,26)	(4,2)	(11,11)	(2,20)	(-4,3)	(-10,1)	(3,2)	(10,2)	(-5,8)	(6,3)	(5,1)	(0,3)	(-20,1)	
L2C 6>	(1,215)	(19,33)	(-5,37)	(2,18)	(3,13)	(-18,7)	(14,2)	(10,19)	(18,3)	(-4,5)	(-3,5)	(-1,3)	(8,4)	(4,1)	(11,2)	(20,4)	
L2C 7>	(1,129)	(2,5)	(-8,1)	(-4,1)	(3,2)	(-41,1)	(-6,2)	(-7,0)	(-2,0)	(-13,3)	(-1,1)	(-21,5)	(-22,2)	(10,1)	(-43,0)	(11,1)	
L2C 8>	(2,40)	(-1,70)	(1,170)	(9,3)	(3,7)	(-35,7)	(-7,17)	(10,1)	(-2,5)	(-13,4)	(12,3)	(-4,3)	(-21,2)	(11,3)	(7,2)	(-36,2)	
L2C 9>	(-8,9)	(1,181)	(-1,2)	(-20,5)	(-9,9)	(2,28)	(3,4)	(-19,17)	(13,9)	(-10,3)	(0,2)	(-2,1)	(-22,3)	(-21,5)	(-11,3)	(-14,1)	
L2C 10>	(-52,22)	(1,50)	(11,139)	(-10,21)	(0,2)	(19,1)	(-41,2)	(-9,12)	(-31,15)	(-21,7)	(10,1)	(38,2)	(-5,1)	(-8,1)	(21,4)	(2,5)	
L2C 11>	(10,241)	(1,151)	(-32,21)	(-31,10)	(-11,27)	(-52,11)	(-53,24)	(20,1)	(-10,24)	(3,2)	(4,2)	(0,10)	(-9,6)	(-42,5)	(21,11)	(-21,11)	
L2C 12>	(1,185)	(18,3)	(2,14)	(-13,1)	(-11,7)	(4,2)	(3,4)	(-1,6)	(-30,1)	(-58,1)	(-15,1)	(46,1)	(-9,2)	(11,4)	(-25,1)	(-28,1)	
L2C 13>	(-26,1)	(1,148)	(-12,23)	(-61,7)	(-23,2)	(-13,1)	(-7,1)	(-14,1)	(-1,17)	(3,10)	(2,6)	(11,3)	(-2,2)	(-33,1)	(20,1)	(-10,1)	
L2C 14>	(1,143)	(-1,2)	(5,14)	(-35,1)	(6,3)	(2,6)	(-30,1)	(-8,1)	(-2,1)	(-40,1)	(-3,1)	(-13,1)	(-29,1)	(-37,2)	(-25,0)	(-28,0)	
L2C 15>	(2,5)	(1,73)	(38,3)	(-12,1)	(20,3)	(11,10)	(-9,2)	(-27,1)	(21,4)	(-20,3)	(-13,3)	(-32,3)	(-18,1)	(-2,3)	(-8,1)	(-3,5)	
L2C 16>	(1,129)	(32,1)	(4,2)	(-8,5)	(11,4)	(22,2)	(-9,2)	(-10,1)	(-20,8)	(-41,3)	(21,17)	(-21,2)	(-19,1)	(-7,1)	(10,4)	(2,9)	
L2C 17>	(1,174)	(-37,0)	(-22,2)	(-20,0)	(3,0)	(-16,2)	(2,6)	(21,4)	(-28,0)	(4,1)	(-39,1)	(-43,3)	(-42,1)	(-44,0)	(10,1)	(-1,0)	
L2C 18>	(1,159)	(-17,8)	(8,15)	(-22,2)	(-20,1)	(3,1)	(-39,1)	(-43,3)	(-31,1)	(2,5)	(20,1)	(-1,1)	(22,1)	(21,8)	(-42,3)	(-27,2)	
L2C 19>	(1,237)	(2,14)	(-44,2)	(-15,3)	(21,6)	(-1,2)	(-17,1)	(-16,1)	(-18,13)	(-22,5)	(-19,8)	(-27,1)	(-42,3)	(3,1)	(-8,1)	(-43,2)	
L2C 20>	(-19,21)	(-40,2)	(1,159)	(21,19)	(10,2)	(-2,1)	(-45,2)	(-11,1)	(-41,1)	(7,2)	(-20,4)	(-22,4)	(-1,3)	(-46,1)	(20,1)	(-6,1)	
L2C 21>	(-42,62)	(10,2)	(-20,41)	(21,148)	(1,44)	(0,5)	(-1,5)	(-22,3)	(-21,20)	(-41,50)	(-40,5)	(-19,3)	(-43,2)	(-10,2)	(-53,4)	(-62,2)	
L2C 22>	(-21,21)	(21,17)	(-42,15)	(1,221)	(-32,21)	(4,2)	(3,3)	(2,5)	(-1,13)	(-4,2)	(-5,2)	(-33,2)	(-22,3)	(-20,1)	(-12,1)	(-46,4)	
L2C 23>	(1,252)	(19,2)	(-43,3)	(2,3)	(-23,2)	(-39,2)	(-1,4)	(-5,1)	(-16,3)	(18,1)	(-31,2)	(-15,2)	(-20,1)	(-35,1)	(-24,1)	(-34,1)	
L2C 24>	(-1,4)	(1,31)	(-46,1)	(-4,1)	(9,16)	(-8,2)	(-16,2)	(-37,3)	(-45,5)	(-50,3)	(-38,4)	(-23,6)	(-47,1)	(-34,2)	(19,1)	(-26,1)	
L2C 25>	(1,54)	(-2,10)	(-22,5)	(-9,2)	(0,1)	(-1,4)	(-24,8)	(-29,1)	(-17,1)	(-42,1)	(-16,4)	(2,8)	(-5,2)	(-6,1)	(4,5)	(-33,1)	
L2C 26>	(-15,3)	(-2,12)	(-26,2)	(-3,4)	(-1,5)	(1,21)	(24,5)	(-52,1)	(-14,1)	(-30,1)	(3,3)	(-10,1)	(-37,1)	(4,2)	(-11,2)	(-39,1)	
L2C 27>	(-20,1)	(2,3)	(1,21)	(-26,1)	(-37,2)	(-38,1)	(-29,1)	(-21,1)	(-1,2)	(-22,1)	(-11,1)	(-24,1)	(-2,1)	(-28,1)	(3,1)	(-17,1)	
L2C 28>	(-24,1)	(-31,1)	(2,1)	(1,14)	(-39,1)	(-3,6)	(7,2)	(-1,3)	(8,8)	(-32,1)	(-41,2)	(21,1)	(-27,2)	(-18,1)	(4,1)	(-40,1)	
L2C 29>	(1,33)	(-26,1)	(-8,1)	(-19,1)	(-5,1)	(-41,4)	(-11,2)	(-21,1)	(-32,1)	(-39,2)	(8,1)	(-7,1)	(-22,1)	(-27,1)	(18,1)	(-10,1)	
L2C 30>	(-1,41)	(12,107)	(-33,2)	(-19,1)	(-28,17)	(1,13)	(-37,1)	(-32,1)	(-41,4)	(-27,1)	(-39,2)	(0,1)	(-3,1)	(-4,1)	(8,1)	(9,1)	
L2C 31>	(1,43)	(-42,3)	(-24,1)	(11,4)	(10,1)	(-20,2)	(-43,1)	(-21,1)	(-19,1)	(-30,1)	(-23,2)	(-6,1)	(-61,1)	(-62,1)	(-10,1)	(-1,1)	
L2C 32>	(-25,1)	(-11,1)	(1,47)	(-22,1)	(-33,2)	(-16,1)	(-2,1)	(-28,1)	(-21,2)	(3,1)	(10,6)	(-53,1)	(-20,1)	(-1,1)	(-27,1)	(-34,1)	
L2C 33>	(-14,2)	(-19,24)	(1,24)	(-29,1)	(-11,1)	(-36,1)	(-23,1)	(-39,1)	(9,1)	(-21,1)	(0,1)	(13,1)	(-31,1)	(-20,1)	(-32,1)	(1,0)	
L2C 34>	(1,109)	(-42,3)	(-43,83)	(-38,1)	(-3,1)	(-37,2)	(3,2)	(-28,1)	(-10,1)	(-31,1)	(4,1)	(-7,2)	(-33,2)	(1,0)	(1,0)	(1,0)	
L2C 35>	(1,13)	(6,1)	(-43,1)	(-13,1)	(-7,1)	(-34,1)	(1,0)	(1,0)	(1,0)	(1,0)	(1,0)	(1,0)	(1,0)	(1,0)	(1,0)	(1,0)	
L2C 36>	(1,27)	(-16,1)	(-1,4)	(-32,2)	(-19,4)	(-36,1)	(-2,1)	(9,1)	(-20,1)	(1,0)	(1,0)	(1,0)	(1,0)	(1,0)	(1,0)	(1,0)	
L2C 37>	(-21,1)	(1,54)	(-20,13)	(-42,4)	(-40,1)	(-19,2)	(-41,9)	(-44,1)	(21,2)	(-31,1)	(-45,1)	(-37,1)	(-36,2)	(-23,1)	(0,2)	(-34,2)	
L2C 38>	(1,53)	(-44,1)	(4,2)	(12,1)	(-37,3)	(2,2)	(-19,2)	(-3,1)	(7,1)	(-43,4)	(-31,1)	(-20,4)	(-42,2)	(3,1)	(-1,1)	(-7,1)	
L2C 39>	(-23,2)	(-29,30)	(1,23)	(-38,7)	(-42,1)	(-20,3)	(-41,1)	(2,1)	(-40,1)	(3,1)	(-19,1)	(1,0)	(1,0)	(1,0)	(1,0)	(1,0)	
L2C 40>	(3,2)	(1,16)	(-39,7)	(-24,1)	(-20,1)	(-45,1)	(-30,4)	(-37,1)	(21,1)	(-46,3)	(2,3)	(-19,2)	(-27,1)	(-41,1)	(-1,1)	(-21,2)	
L2C 41>	(1,52)	(-17,2)	(-40,5)	(-24,1)	(-20,11)	(-31,2)	(-48,1)	(-47,3)	(-51,1)	(-60,1)	(-36,1)	(-1,1)	(0,2)	(-21,2)	(3,1)	(-37,1)	
L2C 42>	(-21,17)	(1,17)	(-43,2)	(-41,10)	(-42,4)	(-44,4)	(-20,8)	(-16,3)	(21,3)	(-46,3)	(-40,5)	(-5,3)	(-45,3)	(-19,2)	(-18,1)	(-9,2)	
L2C 43>	(-21,9)	(-42,8)	(1,13)	(-41,2)	(-1,1)	(2,2)	(-20,1)	(-43,2)	(4,1)	(-46,1)	(-40,1)	(-17,1)	(-23,1)	(-3,1)	(-24,1)	(-45,1)	
L2C 44>	(-23,1)	(-2,1)	(-8,1)	(1,5)	(-43,1)	(-51,1)	(-4,1)	(-50,1)	(-12,1)	(1,0)	(1,0)	(1,0)	(1,0)	(1,0)	(1,0)	(1,0)	
L2C 45>	(1,29)	(-1,2)	(-30,12)	(-4,11)	(-45,1)	(-55,3)	(-51,3)	(-47,1)	(-19,1)	(-57,1)	(-52,2)	(-35,1)	(2,2)	(-44,2)	(-50,1)	(-42,1)	
L2C 46>	(-55,1)	(-45,8)	(1,4)	(-26,1)	(1,0)	(1,0)	(1,0)	(1,0)	(1,0)	(1,0)	(1,0)	(1,0)	(1,0)	(1,0)	(1,0)	(1,0)	
L2C 47>	(-30,2)	(1,6)	(1,0)	(1,0)	(1,0)	(1,0)	(1,0)	(1,0)	(1,0)	(1,0)	(1,0)	(1,0)	(1,0)	(1,0)	(1,0)	(1,0)	
L2C 48>	(-47,1)	(1,10)	(-58,1)	(-30,2)	(-26,2)	(-55,1)	(-44,1)	(1,0)	(1,0)	(1,0)	(1,0)	(1,0)	(1,0)	(1,0)	(1,0)	(1,0)	
L2C 49>	(1,4)	(-4,1)	(-48,1)	(-21,2)	(-42,1)	(3,1)	(1,0)	(1,0)	(1,0)	(1,0)	(1,0)	(1,0)	(1,0)	(1,0)	(1,0)	(1,0)	
L2C 50>	(-51,1)	(1,8)	(-30,1)	(3,1)	(1,0)	(1,0)	(1,0)	(1,0)	(1,0)	(1,0)	(1,0)	(1,0)	(1,0)	(1,0)	(1,0)	(1,0)	
L2C 51>	(-51,19)	(-1,1)	(0,1)	(-21,1)	(1,1)	(-25,1)	(1,0)	(1,0)	(1,0)	(1,0)	(1,0)	(1,0)	(1,0)	(1,0)	(1,0)	(1,0)	
L2C 52>	(1,2)	(1,0)	(1,0)	(1,0)	(1,0)	(1,0)	(1,0)	(1,0)	(1,0)	(1,0)	(1,0)	(1,0)	(1,0)	(1,0)	(1,0)	(1,0)	
L2C 53>	(-8,1)	(-20,1)	(1,1)	(1,0)	(1,0)	(1,0)	(1,0)	(1,0)	(1,0)	(1,0)	(1,0)	(1,0)	(1,0)	(1,0)	(1,0)	(1,0)	
L2C 54>	(-44,2)	(-50,2)	(1,1)	(3,1)	(1,0)	(1,0)	(1,0)	(1,0)	(1,0)	(1,0)	(1,0)	(1,0)	(1,0)	(1,0)	(1,0)	(1,0)	
L2C 55>	(-36,1)	(-4,1)	(-44,1)	(1,0)	(1,0)	(1,0)	(1,0)	(1,0)	(1,0)	(1,0)	(1,0)	(1,0)	(1,0)	(1,0)	(1,0)	(1,0)	
L2C 56>	(-1,1)	(1,0)	(1,0)	(1,0)	(1,0)	(1,0)	(1,0)	(1,0)	(1,0)	(1,0)	(1,0)	(1,0)	(1,0)	(1,0)	(1,0)	(1,0)	
L2C 57>	(1,0)	(1,0)	(1,0)	(1,0)	(1,0)	(1,0)	(1,0)	(1,0)	(1,0)	(1,0)	(1,0)	(1,0)	(1,0)	(1,0)	(1,0)	(1,0)	
L2C 58>	(-51,1)	(-44,1)	(-47,1)	(-58,1)	(-20,1)	(1,0)	(1,0)	(1,0)	(1,0)	(1,0)	(1,0)	(1,0)	(1,0)	(1,0)	(1,0)	(1,0)	
L2C 59>	(-44,2)	(-50,1)	(1,0)	(1,0)	(1,0)	(1,0)	(1,0)	(1,0)	(1,0)	(1,0)	(1,0)	(1,0)	(1,0)	(1,0)	(1,0)	(1,0)	
L2C 60>	(-20,1)	(-41,1)	(1,0)	(1,0)	(1,0)	(1,0)	(1,0)	(1,0)	(1,0)	(1,0)	(1,0)	(1,0)	(1,0)	(1,0)	(1,0)	(1,0)	
L2C 61>	(1,0)	(1,0)	(1,0)	(1,0)	(1,0)	(1,0)	(1,0)	(1,0)	(1,0)	(1,0)	(1,0)	(1,0)	(1,0)	(1,0)	(1,0)	(1,0)	
L2C 62>	(1,0)	(1,0)	(1,0)	(1,0)	(1,0)	(1,0)	(1,0)	(1,0)	(1,0)	(1,0)	(1,0)	(1,0)	(1,0)	(1,0)	(1,0)	(1,0)	
L2C 63>	(-62,1)	(1,0)	(1,0)	(1,0)	(1,0)	(1,0)	(1,0)	(1,0)	(1,0)	(1,0)	(1,0)	(1,0)	(1,0)	(1,0)	(1,0)	(1,0)	

DRAM Statistics
 CHANNEL 0
 RQ ROW_BUFFER_HIT:       6307  ROW_BUFFER_MISS:       3763
 DBUS_CONGESTED:       5893
 WQ ROW_BUFFER_HIT:          0  ROW_BUFFER_MISS:          0  FULL:          0

 AVG_CONGESTED_CYCLE: 6
