
*** ChampSim Multicore Out-of-Order Simulator ***

Warmup Instructions: 1000000
Simulation Instructions: 10000000
Number of CPUs: 1
LLC sets: 2048
LLC ways: 16
Off-chip DRAM Size: 4096 MB Channels: 1 Width: 64-bit Data Rate: 3200 MT/s

CPU 0 runs /home/virtualcse/Data-Prefetching/ChampSim/dpc3_traces/631.deepsjeng_s-928B.champsimtrace.xz
Ultra pref. initializing...
Ultra pref. initialized
Ultra pref. initializing...
Ultra pref. initialized

Warmup complete CPU 0 instructions: 1000004 cycles: 377782 (Simulation time: 0 hr 0 min 1 sec) 

Heartbeat CPU 0 instructions: 10000003 cycles: 8156299 heartbeat IPC: 1.22605 cumulative IPC: 1.15703 (Simulation time: 0 hr 0 min 13 sec) 
Finished CPU 0 instructions: 10000001 cycles: 8664284 cumulative IPC: 1.15416 (Simulation time: 0 hr 0 min 14 sec) 

CPU 0 Branch Prediction Accuracy: 91.5068% MPKI: 9.4132 Average ROB Occupancy at Mispredict: 45.0231

ChampSim completed all CPUs

Region of Interest Statistics

CPU 0 cumulative IPC: 1.15416 instructions: 10000001 cycles: 8664284
L1D TOTAL     ACCESS:    5040963  HIT:    5011057  MISS:      29906
L1D LOAD      ACCESS:    1745945  HIT:    1739364  MISS:       6581
L1D RFO       ACCESS:    1163361  HIT:    1159735  MISS:       3626
L1D PREFETCH  ACCESS:    2131657  HIT:    2111958  MISS:      19699
L1D WRITEBACK ACCESS:          0  HIT:          0  MISS:          0
L1D PREFETCH  REQUESTED:   17664533  ISSUED:   16548974  USEFUL:       3637  USELESS:      19584
L1D AVERAGE MISS LATENCY: 55.1009 cycles
L1I TOTAL     ACCESS:    1101694  HIT:    1093147  MISS:       8547
L1I LOAD      ACCESS:    1101694  HIT:    1093147  MISS:       8547
L1I RFO       ACCESS:          0  HIT:          0  MISS:          0
L1I PREFETCH  ACCESS:          0  HIT:          0  MISS:          0
L1I WRITEBACK ACCESS:          0  HIT:          0  MISS:          0
L1I PREFETCH  REQUESTED:          0  ISSUED:          0  USEFUL:          0  USELESS:          0
L1I AVERAGE MISS LATENCY: 13.4751 cycles
L2C TOTAL     ACCESS:     192444  HIT:     164411  MISS:      28033
L2C LOAD      ACCESS:      15009  HIT:      12667  MISS:       2342
L2C RFO       ACCESS:       3605  HIT:       3345  MISS:        260
L2C PREFETCH  ACCESS:     166274  HIT:     140846  MISS:      25428
L2C WRITEBACK ACCESS:       7556  HIT:       7553  MISS:          3
L2C PREFETCH  REQUESTED:     520763  ISSUED:     406201  USEFUL:       1337  USELESS:      24567
L2C AVERAGE MISS LATENCY: 149.735 cycles
LLC TOTAL     ACCESS:      29893  HIT:       4029  MISS:      25864
LLC LOAD      ACCESS:       2337  HIT:        116  MISS:       2221
LLC RFO       ACCESS:        259  HIT:        114  MISS:        145
LLC PREFETCH  ACCESS:      25434  HIT:       1942  MISS:      23492
LLC WRITEBACK ACCESS:       1863  HIT:       1857  MISS:          6
LLC PREFETCH  REQUESTED:          0  ISSUED:          0  USEFUL:        115  USELESS:       4312
LLC AVERAGE MISS LATENCY: 129.627 cycles
Major fault: 0 Minor fault: 1898

L1D -512>	(1,27)	(4,49)	(3,39)	(6,13)	(10,3)	(2,1)	(-6,2)	(8,1)	(-4,1)	(-52,0)	(-313,0)	(0,83)	(5,0)	(-225,0)	(-131,0)	(-1,1)	
L1D -511>	(1,0)	(1,0)	(1,0)	(1,0)	(1,0)	(1,0)	(1,0)	(1,0)	(1,0)	(1,0)	(1,0)	(1,0)	(1,0)	(1,0)	(1,0)	(1,0)	
L1D -510>	(1,0)	(1,0)	(1,0)	(1,0)	(1,0)	(1,0)	(1,0)	(1,0)	(1,0)	(1,0)	(1,0)	(1,0)	(1,0)	(1,0)	(1,0)	(1,0)	
L1D -509>	(1,0)	(1,0)	(1,0)	(1,0)	(1,0)	(1,0)	(1,0)	(1,0)	(1,0)	(1,0)	(1,0)	(1,0)	(1,0)	(1,0)	(1,0)	(1,0)	
L1D -508>	(1,0)	(1,0)	(1,0)	(1,0)	(1,0)	(1,0)	(1,0)	(1,0)	(1,0)	(1,0)	(1,0)	(1,0)	(1,0)	(1,0)	(1,0)	(1,0)	
L1D -507>	(1,0)	(1,0)	(1,0)	(1,0)	(1,0)	(1,0)	(1,0)	(1,0)	(1,0)	(1,0)	(1,0)	(1,0)	(1,0)	(1,0)	(1,0)	(1,0)	
L1D -506>	(1,0)	(1,0)	(1,0)	(1,0)	(1,0)	(1,0)	(1,0)	(1,0)	(1,0)	(1,0)	(1,0)	(1,0)	(1,0)	(1,0)	(1,0)	(1,0)	
L1D -505>	(1,0)	(1,0)	(1,0)	(1,0)	(1,0)	(1,0)	(1,0)	(1,0)	(1,0)	(1,0)	(1,0)	(1,0)	(1,0)	(1,0)	(1,0)	(1,0)	
L1D -504>	(1,0)	(1,0)	(1,0)	(1,0)	(1,0)	(1,0)	(1,0)	(1,0)	(1,0)	(1,0)	(1,0)	(1,0)	(1,0)	(1,0)	(1,0)	(1,0)	
L1D -503>	(1,0)	(1,0)	(1,0)	(1,0)	(1,0)	(1,0)	(1,0)	(1,0)	(1,0)	(1,0)	(1,0)	(1,0)	(1,0)	(1,0)	(1,0)	(1,0)	
L1D -502>	(96,1)	(1,0)	(1,0)	(1,0)	(1,0)	(1,0)	(1,0)	(1,0)	(1,0)	(1,0)	(1,0)	(1,0)	(1,0)	(1,0)	(1,0)	(1,0)	
L1D -501>	(1,0)	(1,0)	(1,0)	(1,0)	(1,0)	(1,0)	(1,0)	(1,0)	(1,0)	(1,0)	(1,0)	(1,0)	(1,0)	(1,0)	(1,0)	(1,0)	
L1D -500>	(1,0)	(1,0)	(1,0)	(1,0)	(1,0)	(1,0)	(1,0)	(1,0)	(1,0)	(1,0)	(1,0)	(1,0)	(1,0)	(1,0)	(1,0)	(1,0)	
L1D -499>	(1,0)	(1,0)	(1,0)	(1,0)	(1,0)	(1,0)	(1,0)	(1,0)	(1,0)	(1,0)	(1,0)	(1,0)	(1,0)	(1,0)	(1,0)	(1,0)	
L1D -498>	(1,0)	(1,0)	(1,0)	(1,0)	(1,0)	(1,0)	(1,0)	(1,0)	(1,0)	(1,0)	(1,0)	(1,0)	(1,0)	(1,0)	(1,0)	(1,0)	
L1D -497>	(1,0)	(1,0)	(1,0)	(1,0)	(1,0)	(1,0)	(1,0)	(1,0)	(1,0)	(1,0)	(1,0)	(1,0)	(1,0)	(1,0)	(1,0)	(1,0)	
L1D -496>	(1,0)	(1,0)	(1,0)	(1,0)	(1,0)	(1,0)	(1,0)	(1,0)	(1,0)	(1,0)	(1,0)	(1,0)	(1,0)	(1,0)	(1,0)	(1,0)	
L1D -495>	(1,0)	(1,0)	(1,0)	(1,0)	(1,0)	(1,0)	(1,0)	(1,0)	(1,0)	(1,0)	(1,0)	(1,0)	(1,0)	(1,0)	(1,0)	(1,0)	
L1D -494>	(1,0)	(1,0)	(1,0)	(1,0)	(1,0)	(1,0)	(1,0)	(1,0)	(1,0)	(1,0)	(1,0)	(1,0)	(1,0)	(1,0)	(1,0)	(1,0)	
L1D -493>	(1,0)	(1,0)	(1,0)	(1,0)	(1,0)	(1,0)	(1,0)	(1,0)	(1,0)	(1,0)	(1,0)	(1,0)	(1,0)	(1,0)	(1,0)	(1,0)	
L1D -492>	(1,0)	(1,0)	(1,0)	(1,0)	(1,0)	(1,0)	(1,0)	(1,0)	(1,0)	(1,0)	(1,0)	(1,0)	(1,0)	(1,0)	(1,0)	(1,0)	
L1D -491>	(1,0)	(1,0)	(1,0)	(1,0)	(1,0)	(1,0)	(1,0)	(1,0)	(1,0)	(1,0)	(1,0)	(1,0)	(1,0)	(1,0)	(1,0)	(1,0)	
L1D -490>	(1,0)	(1,0)	(1,0)	(1,0)	(1,0)	(1,0)	(1,0)	(1,0)	(1,0)	(1,0)	(1,0)	(1,0)	(1,0)	(1,0)	(1,0)	(1,0)	
L1D -489>	(1,0)	(1,0)	(1,0)	(1,0)	(1,0)	(1,0)	(1,0)	(1,0)	(1,0)	(1,0)	(1,0)	(1,0)	(1,0)	(1,0)	(1,0)	(1,0)	
L1D -488>	(1,0)	(1,0)	(1,0)	(1,0)	(1,0)	(1,0)	(1,0)	(1,0)	(1,0)	(1,0)	(1,0)	(1,0)	(1,0)	(1,0)	(1,0)	(1,0)	
L1D -487>	(1,0)	(1,0)	(1,0)	(1,0)	(1,0)	(1,0)	(1,0)	(1,0)	(1,0)	(1,0)	(1,0)	(1,0)	(1,0)	(1,0)	(1,0)	(1,0)	
L1D -486>	(1,0)	(1,0)	(1,0)	(1,0)	(1,0)	(1,0)	(1,0)	(1,0)	(1,0)	(1,0)	(1,0)	(1,0)	(1,0)	(1,0)	(1,0)	(1,0)	
L1D -485>	(1,0)	(1,0)	(1,0)	(1,0)	(1,0)	(1,0)	(1,0)	(1,0)	(1,0)	(1,0)	(1,0)	(1,0)	(1,0)	(1,0)	(1,0)	(1,0)	
L1D -484>	(1,0)	(1,0)	(1,0)	(1,0)	(1,0)	(1,0)	(1,0)	(1,0)	(1,0)	(1,0)	(1,0)	(1,0)	(1,0)	(1,0)	(1,0)	(1,0)	
L1D -483>	(1,0)	(1,0)	(1,0)	(1,0)	(1,0)	(1,0)	(1,0)	(1,0)	(1,0)	(1,0)	(1,0)	(1,0)	(1,0)	(1,0)	(1,0)	(1,0)	
L1D -482>	(1,0)	(1,0)	(1,0)	(1,0)	(1,0)	(1,0)	(1,0)	(1,0)	(1,0)	(1,0)	(1,0)	(1,0)	(1,0)	(1,0)	(1,0)	(1,0)	
L1D -481>	(123,1)	(1,0)	(1,0)	(1,0)	(1,0)	(1,0)	(1,0)	(1,0)	(1,0)	(1,0)	(1,0)	(1,0)	(1,0)	(1,0)	(1,0)	(1,0)	
L1D -480>	(0,1)	(456,10)	(464,2)	(480,2)	(448,4)	(1,0)	(1,0)	(1,0)	(1,0)	(1,0)	(1,0)	(1,0)	(1,0)	(1,0)	(1,0)	(1,0)	
L1D -479>	(270,2)	(1,0)	(1,0)	(1,0)	(1,0)	(1,0)	(1,0)	(1,0)	(1,0)	(1,0)	(1,0)	(1,0)	(1,0)	(1,0)	(1,0)	(1,0)	
L1D -478>	(121,1)	(498,1)	(400,2)	(1,0)	(1,0)	(1,0)	(1,0)	(1,0)	(1,0)	(1,0)	(1,0)	(1,0)	(1,0)	(1,0)	(1,0)	(1,0)	
L1D -477>	(1,0)	(1,0)	(1,0)	(1,0)	(1,0)	(1,0)	(1,0)	(1,0)	(1,0)	(1,0)	(1,0)	(1,0)	(1,0)	(1,0)	(1,0)	(1,0)	
L1D -476>	(1,0)	(1,0)	(1,0)	(1,0)	(1,0)	(1,0)	(1,0)	(1,0)	(1,0)	(1,0)	(1,0)	(1,0)	(1,0)	(1,0)	(1,0)	(1,0)	
L1D -475>	(475,3)	(411,1)	(1,0)	(1,0)	(1,0)	(1,0)	(1,0)	(1,0)	(1,0)	(1,0)	(1,0)	(1,0)	(1,0)	(1,0)	(1,0)	(1,0)	
L1D -474>	(115,3)	(2,1)	(1,0)	(1,0)	(1,0)	(1,0)	(1,0)	(1,0)	(1,0)	(1,0)	(1,0)	(1,0)	(1,0)	(1,0)	(1,0)	(1,0)	
L1D -473>	(2,1)	(1,0)	(1,0)	(1,0)	(1,0)	(1,0)	(1,0)	(1,0)	(1,0)	(1,0)	(1,0)	(1,0)	(1,0)	(1,0)	(1,0)	(1,0)	
L1D -472>	(113,2)	(98,1)	(-8,1)	(63,1)	(1,0)	(1,0)	(1,0)	(1,0)	(1,0)	(1,0)	(1,0)	(1,0)	(1,0)	(1,0)	(1,0)	(1,0)	
L1D -471>	(343,3)	(1,2)	(97,1)	(1,0)	(1,0)	(1,0)	(1,0)	(1,0)	(1,0)	(1,0)	(1,0)	(1,0)	(1,0)	(1,0)	(1,0)	(1,0)	
L1D -470>	(281,1)	(96,8)	(1,0)	(1,0)	(1,0)	(1,0)	(1,0)	(1,0)	(1,0)	(1,0)	(1,0)	(1,0)	(1,0)	(1,0)	(1,0)	(1,0)	
L1D -469>	(27,1)	(26,1)	(278,1)	(1,0)	(1,0)	(1,0)	(1,0)	(1,0)	(1,0)	(1,0)	(1,0)	(1,0)	(1,0)	(1,0)	(1,0)	(1,0)	
L1D -468>	(1,0)	(1,0)	(1,0)	(1,0)	(1,0)	(1,0)	(1,0)	(1,0)	(1,0)	(1,0)	(1,0)	(1,0)	(1,0)	(1,0)	(1,0)	(1,0)	
L1D -467>	(1,5)	(1,0)	(1,0)	(1,0)	(1,0)	(1,0)	(1,0)	(1,0)	(1,0)	(1,0)	(1,0)	(1,0)	(1,0)	(1,0)	(1,0)	(1,0)	
L1D -466>	(330,17)	(254,2)	(1,0)	(1,0)	(1,0)	(1,0)	(1,0)	(1,0)	(1,0)	(1,0)	(1,0)	(1,0)	(1,0)	(1,0)	(1,0)	(1,0)	
L1D -465>	(122,1)	(0,2)	(114,1)	(120,1)	(1,0)	(1,0)	(1,0)	(1,0)	(1,0)	(1,0)	(1,0)	(1,0)	(1,0)	(1,0)	(1,0)	(1,0)	
L1D -464>	(0,5)	(113,4)	(448,2)	(1,0)	(1,0)	(1,0)	(1,0)	(1,0)	(1,0)	(1,0)	(1,0)	(1,0)	(1,0)	(1,0)	(1,0)	(1,0)	
L1D -463>	(1,0)	(1,0)	(1,0)	(1,0)	(1,0)	(1,0)	(1,0)	(1,0)	(1,0)	(1,0)	(1,0)	(1,0)	(1,0)	(1,0)	(1,0)	(1,0)	
L1D -462>	(277,1)	(1,0)	(1,0)	(1,0)	(1,0)	(1,0)	(1,0)	(1,0)	(1,0)	(1,0)	(1,0)	(1,0)	(1,0)	(1,0)	(1,0)	(1,0)	
L1D -461>	(1,0)	(1,0)	(1,0)	(1,0)	(1,0)	(1,0)	(1,0)	(1,0)	(1,0)	(1,0)	(1,0)	(1,0)	(1,0)	(1,0)	(1,0)	(1,0)	
L1D -460>	(78,1)	(-5,1)	(144,1)	(260,1)	(67,1)	(1,0)	(1,0)	(1,0)	(1,0)	(1,0)	(1,0)	(1,0)	(1,0)	(1,0)	(1,0)	(1,0)	
L1D -459>	(249,1)	(459,2)	(66,1)	(1,0)	(1,0)	(1,0)	(1,0)	(1,0)	(1,0)	(1,0)	(1,0)	(1,0)	(1,0)	(1,0)	(1,0)	(1,0)	
L1D -458>	(2,2)	(1,1)	(458,6)	(246,1)	(1,0)	(1,0)	(1,0)	(1,0)	(1,0)	(1,0)	(1,0)	(1,0)	(1,0)	(1,0)	(1,0)	(1,0)	
L1D -457>	(2,2)	(122,4)	(106,1)	(329,5)	(350,3)	(332,2)	(322,1)	(1,0)	(1,0)	(1,0)	(1,0)	(1,0)	(1,0)	(1,0)	(1,0)	(1,0)	
L1D -456>	(8,3)	(113,1)	(0,2)	(16,1)	(260,2)	(448,19)	(-8,1)	(1,0)	(1,0)	(1,0)	(1,0)	(1,0)	(1,0)	(1,0)	(1,0)	(1,0)	
L1D -455>	(104,5)	(274,1)	(1,0)	(1,0)	(1,0)	(1,0)	(1,0)	(1,0)	(1,0)	(1,0)	(1,0)	(1,0)	(1,0)	(1,0)	(1,0)	(1,0)	
L1D -454>	(251,1)	(247,10)	(267,1)	(295,1)	(80,2)	(25,1)	(1,0)	(1,0)	(1,0)	(1,0)	(1,0)	(1,0)	(1,0)	(1,0)	(1,0)	(1,0)	
L1D -453>	(453,4)	(0,1)	(1,0)	(1,0)	(1,0)	(1,0)	(1,0)	(1,0)	(1,0)	(1,0)	(1,0)	(1,0)	(1,0)	(1,0)	(1,0)	(1,0)	
L1D -452>	(270,1)	(1,0)	(1,0)	(1,0)	(1,0)	(1,0)	(1,0)	(1,0)	(1,0)	(1,0)	(1,0)	(1,0)	(1,0)	(1,0)	(1,0)	(1,0)	
L1D -451>	(2,3)	(122,2)	(263,1)	(323,1)	(1,0)	(1,0)	(1,0)	(1,0)	(1,0)	(1,0)	(1,0)	(1,0)	(1,0)	(1,0)	(1,0)	(1,0)	
L1D -450>	(2,2)	(115,10)	(1,2)	(304,1)	(400,1)	(384,1)	(314,3)	(270,1)	(392,1)	(1,0)	(1,0)	(1,0)	(1,0)	(1,0)	(1,0)	(1,0)	
L1D -449>	(0,10)	(114,6)	(312,3)	(122,1)	(1,3)	(2,17)	(1,0)	(1,0)	(1,0)	(1,0)	(1,0)	(1,0)	(1,0)	(1,0)	(1,0)	(1,0)	
L1D -448>	(113,9)	(122,4)	(0,1)	(1,1)	(121,7)	(384,20)	(416,14)	(112,17)	(432,6)	(448,64)	(480,26)	(464,2)	(119,1)	(424,2)	(456,2)	(-8,1)	
L1D -447>	(319,2)	(447,7)	(-2,3)	(8,2)	(0,13)	(121,2)	(119,1)	(384,3)	(7,1)	(112,1)	(1,0)	(1,0)	(1,0)	(1,0)	(1,0)	(1,0)	
L1D -446>	(446,1)	(319,2)	(318,1)	(0,2)	(459,1)	(1,0)	(1,0)	(1,0)	(1,0)	(1,0)	(1,0)	(1,0)	(1,0)	(1,0)	(1,0)	(1,0)	
L1D -445>	(319,1)	(445,1)	(1,0)	(1,0)	(1,0)	(1,0)	(1,0)	(1,0)	(1,0)	(1,0)	(1,0)	(1,0)	(1,0)	(1,0)	(1,0)	(1,0)	
L1D -444>	(144,2)	(93,1)	(67,2)	(260,6)	(252,1)	(0,1)	(-8,1)	(1,0)	(1,0)	(1,0)	(1,0)	(1,0)	(1,0)	(1,0)	(1,0)	(1,0)	
L1D -443>	(0,1)	(-26,3)	(66,1)	(443,1)	(1,0)	(1,0)	(1,0)	(1,0)	(1,0)	(1,0)	(1,0)	(1,0)	(1,0)	(1,0)	(1,0)	(1,0)	
L1D -442>	(1,2)	(113,2)	(1,0)	(1,0)	(1,0)	(1,0)	(1,0)	(1,0)	(1,0)	(1,0)	(1,0)	(1,0)	(1,0)	(1,0)	(1,0)	(1,0)	
L1D -441>	(115,4)	(114,1)	(106,2)	(-8,1)	(273,3)	(-6,2)	(1,0)	(1,0)	(1,0)	(1,0)	(1,0)	(1,0)	(1,0)	(1,0)	(1,0)	(1,0)	
L1D -440>	(-8,21)	(114,2)	(312,2)	(113,3)	(440,6)	(459,1)	(0,1)	(63,1)	(1,0)	(1,0)	(1,0)	(1,0)	(1,0)	(1,0)	(1,0)	(1,0)	
L1D -439>	(113,7)	(0,22)	(232,3)	(-9,2)	(459,2)	(324,1)	(336,1)	(328,1)	(306,1)	(307,1)	(308,2)	(310,2)	(326,1)	(331,1)	(338,1)	(250,1)	
L1D -438>	(438,31)	(459,12)	(212,2)	(276,2)	(311,3)	(349,1)	(315,1)	(330,1)	(336,1)	(358,1)	(367,1)	(306,1)	(340,1)	(338,1)	(328,1)	(323,1)	
L1D -437>	(1,3)	(438,127)	(212,2)	(0,1)	(311,17)	(458,6)	(434,6)	(295,1)	(437,2)	(1,0)	(1,0)	(1,0)	(1,0)	(1,0)	(1,0)	(1,0)	
L1D -436>	(0,5)	(1,6)	(438,127)	(434,15)	(295,7)	(212,1)	(1,0)	(1,0)	(1,0)	(1,0)	(1,0)	(1,0)	(1,0)	(1,0)	(1,0)	(1,0)	
L1D -435>	(1,2)	(435,65)	(294,11)	(434,4)	(438,3)	(431,4)	(210,5)	(261,2)	(93,6)	(264,2)	(92,2)	(104,1)	(105,2)	(250,2)	(260,1)	(97,1)	
L1D -434>	(1,2)	(0,15)	(435,44)	(438,72)	(295,17)	(212,8)	(434,22)	(210,1)	(93,1)	(1,0)	(1,0)	(1,0)	(1,0)	(1,0)	(1,0)	(1,0)	
L1D -433>	(432,0)	(0,15)	(1,4)	(435,78)	(294,4)	(8,0)	(-3,12)	(210,4)	(431,2)	(3,0)	(1,0)	(1,0)	(1,0)	(1,0)	(1,0)	(1,0)	
L1D -432>	(0,2)	(238,3)	(432,2)	(1,0)	(1,0)	(1,0)	(1,0)	(1,0)	(1,0)	(1,0)	(1,0)	(1,0)	(1,0)	(1,0)	(1,0)	(1,0)	
L1D -431>	(0,7)	(104,2)	(-2,1)	(1,72)	(431,40)	(2,1)	(294,11)	(210,6)	(435,13)	(92,1)	(1,0)	(1,0)	(1,0)	(1,0)	(1,0)	(1,0)	
L1D -430>	(1,113)	(0,9)	(206,1)	(431,1)	(261,4)	(121,1)	(1,0)	(1,0)	(1,0)	(1,0)	(1,0)	(1,0)	(1,0)	(1,0)	(1,0)	(1,0)	
L1D -429>	(1,118)	(0,8)	(450,1)	(221,1)	(8,1)	(1,0)	(1,0)	(1,0)	(1,0)	(1,0)	(1,0)	(1,0)	(1,0)	(1,0)	(1,0)	(1,0)	
L1D -428>	(1,10)	(8,2)	(0,1)	(1,0)	(1,0)	(1,0)	(1,0)	(1,0)	(1,0)	(1,0)	(1,0)	(1,0)	(1,0)	(1,0)	(1,0)	(1,0)	
L1D -427>	(1,93)	(0,14)	(8,1)	(-17,1)	(203,1)	(427,33)	(290,4)	(423,1)	(2,1)	(1,0)	(1,0)	(1,0)	(1,0)	(1,0)	(1,0)	(1,0)	
L1D -426>	(0,10)	(427,106)	(423,6)	(-3,3)	(203,1)	(1,3)	(426,3)	(290,3)	(270,1)	(1,0)	(1,0)	(1,0)	(1,0)	(1,0)	(1,0)	(1,0)	
L1D -425>	(1,5)	(0,4)	(427,111)	(423,4)	(203,9)	(290,11)	(2,1)	(1,0)	(1,0)	(1,0)	(1,0)	(1,0)	(1,0)	(1,0)	(1,0)	(1,0)	
L1D -424>	(0,2)	(427,5)	(290,1)	(8,2)	(423,2)	(1,0)	(1,0)	(1,0)	(1,0)	(1,0)	(1,0)	(1,0)	(1,0)	(1,0)	(1,0)	(1,0)	
L1D -423>	(0,37)	(1,126)	(114,1)	(423,67)	(290,22)	(427,28)	(203,5)	(428,1)	(-4,2)	(94,1)	(1,0)	(1,0)	(1,0)	(1,0)	(1,0)	(1,0)	
L1D -422>	(0,3)	(1,101)	(27,0)	(215,0)	(1,0)	(1,0)	(1,0)	(1,0)	(1,0)	(1,0)	(1,0)	(1,0)	(1,0)	(1,0)	(1,0)	(1,0)	
L1D -421>	(1,107)	(0,1)	(270,0)	(335,0)	(16,0)	(1,0)	(1,0)	(1,0)	(1,0)	(1,0)	(1,0)	(1,0)	(1,0)	(1,0)	(1,0)	(1,0)	
L1D -420>	(1,14)	(0,13)	(-3,13)	(420,1)	(79,1)	(3,2)	(1,0)	(1,0)	(1,0)	(1,0)	(1,0)	(1,0)	(1,0)	(1,0)	(1,0)	(1,0)	
L1D -419>	(1,122)	(0,21)	(419,23)	(286,9)	(415,1)	(1,0)	(1,0)	(1,0)	(1,0)	(1,0)	(1,0)	(1,0)	(1,0)	(1,0)	(1,0)	(1,0)	
L1D -418>	(18,1)	(419,116)	(0,3)	(1,5)	(415,2)	(8,1)	(1,0)	(1,0)	(1,0)	(1,0)	(1,0)	(1,0)	(1,0)	(1,0)	(1,0)	(1,0)	
L1D -417>	(41,1)	(123,1)	(122,2)	(419,108)	(286,24)	(196,7)	(1,4)	(8,1)	(415,6)	(0,1)	(113,3)	(1,0)	(1,0)	(1,0)	(1,0)	(1,0)	
L1D -416>	(0,5)	(400,2)	(392,1)	(260,6)	(209,9)	(416,18)	(-81,1)	(204,3)	(252,4)	(188,1)	(128,2)	(5,3)	(415,8)	(384,3)	(414,1)	(202,2)	
L1D -415>	(0,38)	(1,74)	(415,84)	(419,22)	(286,28)	(122,2)	(120,1)	(268,1)	(115,1)	(2,1)	(196,1)	(1,0)	(1,0)	(1,0)	(1,0)	(1,0)	
L1D -414>	(1,112)	(0,4)	(105,1)	(121,0)	(319,0)	(1,0)	(1,0)	(1,0)	(1,0)	(1,0)	(1,0)	(1,0)	(1,0)	(1,0)	(1,0)	(1,0)	
L1D -413>	(1,124)	(0,3)	(79,0)	(-8,0)	(1,0)	(1,0)	(1,0)	(1,0)	(1,0)	(1,0)	(1,0)	(1,0)	(1,0)	(1,0)	(1,0)	(1,0)	
L1D -412>	(1,6)	(0,16)	(-3,14)	(270,4)	(222,1)	(1,0)	(1,0)	(1,0)	(1,0)	(1,0)	(1,0)	(1,0)	(1,0)	(1,0)	(1,0)	(1,0)	
L1D -411>	(0,41)	(1,109)	(270,1)	(-3,3)	(411,18)	(221,2)	(282,7)	(229,1)	(1,0)	(1,0)	(1,0)	(1,0)	(1,0)	(1,0)	(1,0)	(1,0)	
L1D -410>	(411,105)	(1,1)	(407,1)	(440,1)	(189,1)	(0,2)	(1,0)	(1,0)	(1,0)	(1,0)	(1,0)	(1,0)	(1,0)	(1,0)	(1,0)	(1,0)	
L1D -409>	(261,1)	(0,5)	(411,43)	(-64,28)	(282,6)	(-6,1)	(197,1)	(1,1)	(407,1)	(189,1)	(1,0)	(1,0)	(1,0)	(1,0)	(1,0)	(1,0)	
L1D -408>	(407,4)	(206,5)	(404,1)	(252,1)	(3,1)	(-9,1)	(-2,1)	(113,1)	(411,2)	(440,1)	(104,3)	(384,1)	(282,1)	(1,0)	(1,0)	(1,0)	
L1D -407>	(0,20)	(1,42)	(407,67)	(377,3)	(411,15)	(282,5)	(94,5)	(197,1)	(171,1)	(349,1)	(8,1)	(499,1)	(28,2)	(412,1)	(91,1)	(4,2)	
L1D -406>	(1,122)	(79,1)	(278,1)	(219,1)	(34,1)	(0,2)	(426,1)	(311,2)	(1,0)	(1,0)	(1,0)	(1,0)	(1,0)	(1,0)	(1,0)	(1,0)	
L1D -405>	(1,124)	(311,7)	(255,1)	(191,1)	(261,1)	(0,2)	(275,0)	(316,0)	(325,0)	(334,0)	(297,0)	(296,0)	(273,0)	(305,0)	(304,0)	(282,0)	
L1D -404>	(0,1)	(-64,1)	(1,10)	(16,2)	(9,2)	(313,1)	(1,0)	(1,0)	(1,0)	(1,0)	(1,0)	(1,0)	(1,0)	(1,0)	(1,0)	(1,0)	
L1D -403>	(93,34)	(0,9)	(97,37)	(105,35)	(92,33)	(266,9)	(1,61)	(104,62)	(403,11)	(113,29)	(90,30)	(250,52)	(121,14)	(114,22)	(102,1)	(117,22)	
L1D -402>	(261,5)	(93,12)	(102,1)	(104,17)	(92,10)	(114,4)	(264,9)	(90,3)	(403,77)	(250,3)	(95,6)	(97,15)	(105,16)	(113,12)	(265,7)	(121,14)	
L1D -401>	(318,2)	(399,1)	(396,1)	(260,2)	(398,2)	(113,1)	(-26,1)	(122,1)	(11,1)	(196,1)	(403,22)	(121,1)	(1,2)	(197,1)	(8,3)	(313,1)	
L1D -400>	(0,2)	(-64,3)	(254,1)	(400,4)	(464,1)	(121,2)	(112,4)	(122,27)	(384,2)	(105,1)	(363,2)	(399,1)	(278,1)	(1,0)	(1,0)	(1,0)	
L1D -399>	(0,6)	(1,26)	(399,36)	(250,7)	(120,3)	(403,13)	(392,2)	(278,4)	(90,8)	(401,1)	(396,1)	(3,2)	(92,2)	(93,1)	(104,3)	(265,5)	
L1D -398>	(97,20)	(93,9)	(264,5)	(0,41)	(197,4)	(121,24)	(92,15)	(265,2)	(1,71)	(8,4)	(-3,22)	(3,4)	(113,12)	(104,36)	(261,3)	(250,16)	
L1D -397>	(93,10)	(191,1)	(183,1)	(1,104)	(10,1)	(91,1)	(448,1)	(0,2)	(-26,1)	(1,0)	(1,0)	(1,0)	(1,0)	(1,0)	(1,0)	(1,0)	
L1D -396>	(-26,1)	(1,3)	(8,1)	(3,1)	(0,3)	(271,1)	(-9,1)	(-64,3)	(112,1)	(250,1)	(197,1)	(1,0)	(1,0)	(1,0)	(1,0)	(1,0)	
L1D -395>	(-1,2)	(264,1)	(101,1)	(0,1)	(1,21)	(-64,3)	(104,3)	(25,2)	(265,1)	(250,1)	(403,1)	(395,18)	(1,0)	(1,0)	(1,0)	(1,0)	
L1D -394>	(1,1)	(3,3)	(200,3)	(29,1)	(395,31)	(403,1)	(401,1)	(202,1)	(396,2)	(186,1)	(175,2)	(1,0)	(1,0)	(1,0)	(1,0)	(1,0)	
L1D -393>	(-64,5)	(393,10)	(-3,1)	(255,1)	(8,4)	(0,2)	(206,1)	(128,1)	(197,5)	(395,15)	(391,3)	(-68,1)	(204,1)	(238,1)	(1,0)	(1,0)	
L1D -392>	(183,1)	(392,3)	(-1,1)	(-8,3)	(67,1)	(238,1)	(395,1)	(440,8)	(121,1)	(391,1)	(1,0)	(1,0)	(1,0)	(1,0)	(1,0)	(1,0)	
L1D -391>	(361,3)	(197,2)	(255,3)	(333,2)	(476,2)	(395,5)	(391,12)	(78,10)	(460,2)	(332,2)	(1,16)	(-64,10)	(11,4)	(175,1)	(393,1)	(0,1)	
L1D -390>	(0,3)	(-64,1)	(183,2)	(255,1)	(1,18)	(1,0)	(1,0)	(1,0)	(1,0)	(1,0)	(1,0)	(1,0)	(1,0)	(1,0)	(1,0)	(1,0)	
L1D -389>	(-64,9)	(1,61)	(122,1)	(78,1)	(205,1)	(470,1)	(385,3)	(2,2)	(261,4)	(183,1)	(197,2)	(313,1)	(190,1)	(300,1)	(0,2)	(-55,1)	
L1D -388>	(388,1)	(-8,2)	(0,1)	(-16,5)	(462,1)	(-72,1)	(56,1)	(-1,1)	(8,1)	(-3,6)	(1,1)	(1,0)	(1,0)	(1,0)	(1,0)	(1,0)	
L1D -387>	(2,1)	(387,6)	(192,1)	(1,13)	(0,1)	(1,0)	(1,0)	(1,0)	(1,0)	(1,0)	(1,0)	(1,0)	(1,0)	(1,0)	(1,0)	(1,0)	
L1D -386>	(1,2)	(2,2)	(-64,9)	(208,1)	(121,1)	(387,16)	(0,1)	(296,1)	(-3,1)	(3,1)	(1,0)	(1,0)	(1,0)	(1,0)	(1,0)	(1,0)	
L1D -385>	(-64,5)	(0,2)	(113,1)	(2,2)	(385,2)	(51,1)	(8,30)	(122,12)	(-67,1)	(-2,1)	(383,2)	(387,3)	(336,1)	(313,2)	(404,1)	(197,3)	
L1D -384>	(121,10)	(0,6)	(379,1)	(-64,4)	(384,95)	(400,10)	(319,1)	(392,6)	(113,1)	(111,1)	(416,26)	(112,4)	(-72,5)	(448,2)	(440,3)	(105,1)	
L1D -383>	(260,1)	(383,13)	(120,2)	(0,2)	(-64,7)	(8,1)	(121,1)	(188,1)	(288,2)	(5,2)	(394,1)	(401,1)	(387,2)	(1,2)	(1,0)	(1,0)	
L1D -382>	(0,1)	(377,2)	(387,2)	(271,1)	(120,1)	(197,2)	(419,6)	(183,1)	(1,20)	(1,0)	(1,0)	(1,0)	(1,0)	(1,0)	(1,0)	(1,0)	
L1D -381>	(-64,3)	(197,2)	(8,2)	(1,0)	(1,0)	(1,0)	(1,0)	(1,0)	(1,0)	(1,0)	(1,0)	(1,0)	(1,0)	(1,0)	(1,0)	(1,0)	
L1D -380>	(0,2)	(-64,2)	(144,1)	(380,2)	(55,28)	(252,2)	(-16,2)	(296,2)	(-72,2)	(238,2)	(430,1)	(348,1)	(-15,1)	(270,1)	(312,1)	(3,1)	
L1D -379>	(1,3)	(286,1)	(-64,1)	(-80,1)	(0,5)	(267,2)	(197,2)	(122,1)	(379,2)	(270,1)	(363,3)	(1,0)	(1,0)	(1,0)	(1,0)	(1,0)	
L1D -378>	(-48,4)	(3,6)	(115,4)	(293,2)	(380,16)	(186,1)	(16,7)	(0,4)	(113,1)	(-64,3)	(-32,4)	(8,1)	(182,1)	(378,11)	(63,1)	(200,11)	
L1D -377>	(0,11)	(114,7)	(312,2)	(126,2)	(5,8)	(-64,17)	(313,3)	(377,39)	(396,1)	(60,1)	(344,1)	(1,1)	(8,9)	(197,29)	(282,1)	(286,1)	
L1D -376>	(113,5)	(51,12)	(368,2)	(345,4)	(8,26)	(16,6)	(0,7)	(337,3)	(376,1)	(440,9)	(55,8)	(245,3)	(332,1)	(242,1)	(116,1)	(-12,2)	
L1D -375>	(347,4)	(296,3)	(92,2)	(374,1)	(95,2)	(375,12)	(60,3)	(-3,2)	(-9,1)	(372,1)	(8,1)	(-55,3)	(197,7)	(-128,6)	(183,4)	(97,1)	
L1D -374>	(-64,1)	(8,3)	(246,1)	(0,1)	(271,2)	(96,9)	(407,1)	(411,3)	(1,0)	(1,0)	(1,0)	(1,0)	(1,0)	(1,0)	(1,0)	(1,0)	
L1D -373>	(-64,22)	(79,1)	(16,2)	(243,2)	(271,14)	(394,1)	(259,1)	(252,1)	(244,1)	(284,1)	(250,1)	(302,1)	(264,1)	(275,1)	(265,1)	(241,1)	
L1D -372>	(0,17)	(372,2)	(55,1)	(468,1)	(-72,5)	(1,0)	(1,0)	(1,0)	(1,0)	(1,0)	(1,0)	(1,0)	(1,0)	(1,0)	(1,0)	(1,0)	
L1D -371>	(176,1)	(174,1)	(8,5)	(16,3)	(-64,1)	(-8,2)	(1,0)	(1,0)	(1,0)	(1,0)	(1,0)	(1,0)	(1,0)	(1,0)	(1,0)	(1,0)	
L1D -370>	(0,1)	(8,9)	(207,1)	(1,1)	(1,0)	(1,0)	(1,0)	(1,0)	(1,0)	(1,0)	(1,0)	(1,0)	(1,0)	(1,0)	(1,0)	(1,0)	
L1D -369>	(106,1)	(-64,6)	(277,1)	(274,1)	(8,7)	(16,1)	(160,1)	(157,2)	(367,1)	(1,0)	(1,0)	(1,0)	(1,0)	(1,0)	(1,0)	(1,0)	
L1D -368>	(0,1)	(437,2)	(368,30)	(361,16)	(438,24)	(8,3)	(440,1)	(439,6)	(-64,4)	(55,17)	(432,1)	(253,2)	(252,5)	(245,1)	(309,2)	(259,2)	
L1D -367>	(104,2)	(-64,20)	(368,2)	(0,1)	(1,0)	(1,0)	(1,0)	(1,0)	(1,0)	(1,0)	(1,0)	(1,0)	(1,0)	(1,0)	(1,0)	(1,0)	
L1D -366>	(8,1)	(-64,5)	(241,1)	(1,0)	(1,0)	(1,0)	(1,0)	(1,0)	(1,0)	(1,0)	(1,0)	(1,0)	(1,0)	(1,0)	(1,0)	(1,0)	
L1D -365>	(-64,56)	(1,0)	(1,0)	(1,0)	(1,0)	(1,0)	(1,0)	(1,0)	(1,0)	(1,0)	(1,0)	(1,0)	(1,0)	(1,0)	(1,0)	(1,0)	
L1D -364>	(-64,71)	(8,1)	(7,1)	(316,2)	(364,2)	(227,1)	(236,3)	(365,1)	(1,0)	(1,0)	(1,0)	(1,0)	(1,0)	(1,0)	(1,0)	(1,0)	
L1D -363>	(-1,8)	(-64,1)	(-8,1)	(1,0)	(1,0)	(1,0)	(1,0)	(1,0)	(1,0)	(1,0)	(1,0)	(1,0)	(1,0)	(1,0)	(1,0)	(1,0)	
L1D -362>	(-64,8)	(464,1)	(0,1)	(1,0)	(1,0)	(1,0)	(1,0)	(1,0)	(1,0)	(1,0)	(1,0)	(1,0)	(1,0)	(1,0)	(1,0)	(1,0)	
L1D -361>	(0,1)	(-64,21)	(-16,1)	(116,1)	(-8,3)	(361,5)	(-2,1)	(3,1)	(1,0)	(1,0)	(1,0)	(1,0)	(1,0)	(1,0)	(1,0)	(1,0)	
L1D -360>	(1,2)	(352,1)	(167,1)	(-128,13)	(-64,7)	(360,2)	(361,2)	(72,1)	(1,0)	(1,0)	(1,0)	(1,0)	(1,0)	(1,0)	(1,0)	(1,0)	
L1D -359>	(1,3)	(0,6)	(331,5)	(73,1)	(76,4)	(93,3)	(275,1)	(267,1)	(-2,1)	(-3,54)	(-128,2)	(8,2)	(-64,1)	(359,2)	(3,3)	(1,0)	
L1D -358>	(172,1)	(0,8)	(-3,31)	(-64,1)	(275,1)	(3,6)	(243,1)	(128,6)	(80,2)	(-8,1)	(1,0)	(1,0)	(1,0)	(1,0)	(1,0)	(1,0)	
L1D -357>	(0,1)	(-128,4)	(357,1)	(79,2)	(1,0)	(1,0)	(1,0)	(1,0)	(1,0)	(1,0)	(1,0)	(1,0)	(1,0)	(1,0)	(1,0)	(1,0)	
L1D -356>	(0,2)	(79,1)	(356,2)	(1,0)	(1,0)	(1,0)	(1,0)	(1,0)	(1,0)	(1,0)	(1,0)	(1,0)	(1,0)	(1,0)	(1,0)	(1,0)	
L1D -355>	(3,3)	(438,2)	(-16,5)	(0,1)	(341,4)	(8,2)	(1,0)	(1,0)	(1,0)	(1,0)	(1,0)	(1,0)	(1,0)	(1,0)	(1,0)	(1,0)	
L1D -354>	(-64,6)	(13,2)	(0,1)	(1,0)	(1,0)	(1,0)	(1,0)	(1,0)	(1,0)	(1,0)	(1,0)	(1,0)	(1,0)	(1,0)	(1,0)	(1,0)	
L1D -353>	(-64,1)	(243,1)	(122,1)	(16,1)	(1,0)	(1,0)	(1,0)	(1,0)	(1,0)	(1,0)	(1,0)	(1,0)	(1,0)	(1,0)	(1,0)	(1,0)	
L1D -352>	(352,3)	(360,1)	(1,1)	(0,1)	(344,2)	(-64,3)	(-128,3)	(471,3)	(122,1)	(253,1)	(361,1)	(439,1)	(1,0)	(1,0)	(1,0)	(1,0)	
L1D -351>	(-128,1)	(121,1)	(122,1)	(1,0)	(1,0)	(1,0)	(1,0)	(1,0)	(1,0)	(1,0)	(1,0)	(1,0)	(1,0)	(1,0)	(1,0)	(1,0)	
L1D -350>	(-64,1)	(128,1)	(471,1)	(120,1)	(-79,1)	(1,0)	(1,0)	(1,0)	(1,0)	(1,0)	(1,0)	(1,0)	(1,0)	(1,0)	(1,0)	(1,0)	
L1D -349>	(-128,3)	(66,1)	(321,1)	(79,1)	(9,1)	(244,1)	(225,1)	(17,1)	(1,0)	(1,0)	(1,0)	(1,0)	(1,0)	(1,0)	(1,0)	(1,0)	
L1D -348>	(-8,1)	(-32,1)	(122,1)	(1,0)	(1,0)	(1,0)	(1,0)	(1,0)	(1,0)	(1,0)	(1,0)	(1,0)	(1,0)	(1,0)	(1,0)	(1,0)	
L1D -347>	(347,2)	(262,1)	(252,1)	(-64,1)	(270,1)	(1,0)	(1,0)	(1,0)	(1,0)	(1,0)	(1,0)	(1,0)	(1,0)	(1,0)	(1,0)	(1,0)	
L1D -346>	(466,22)	(-64,2)	(1,0)	(1,0)	(1,0)	(1,0)	(1,0)	(1,0)	(1,0)	(1,0)	(1,0)	(1,0)	(1,0)	(1,0)	(1,0)	(1,0)	
L1D -345>	(-64,2)	(275,2)	(-16,3)	(243,11)	(274,1)	(-3,2)	(423,1)	(0,2)	(165,1)	(-128,1)	(350,2)	(324,2)	(297,2)	(1,0)	(1,0)	(1,0)	
L1D -344>	(-16,5)	(0,4)	(-64,2)	(-128,3)	(-8,8)	(363,1)	(344,1)	(-7,5)	(106,1)	(458,1)	(1,0)	(1,0)	(1,0)	(1,0)	(1,0)	(1,0)	
L1D -343>	(275,23)	(8,3)	(274,1)	(277,1)	(-128,9)	(3,1)	(363,2)	(223,3)	(1,0)	(1,0)	(1,0)	(1,0)	(1,0)	(1,0)	(1,0)	(1,0)	
L1D -342>	(275,1)	(363,1)	(-128,1)	(1,0)	(1,0)	(1,0)	(1,0)	(1,0)	(1,0)	(1,0)	(1,0)	(1,0)	(1,0)	(1,0)	(1,0)	(1,0)	
L1D -341>	(-64,2)	(1,0)	(1,0)	(1,0)	(1,0)	(1,0)	(1,0)	(1,0)	(1,0)	(1,0)	(1,0)	(1,0)	(1,0)	(1,0)	(1,0)	(1,0)	
L1D -340>	(-128,2)	(0,2)	(-64,3)	(454,2)	(453,2)	(1,0)	(1,0)	(1,0)	(1,0)	(1,0)	(1,0)	(1,0)	(1,0)	(1,0)	(1,0)	(1,0)	
L1D -339>	(-64,10)	(458,5)	(342,4)	(258,2)	(1,0)	(1,0)	(1,0)	(1,0)	(1,0)	(1,0)	(1,0)	(1,0)	(1,0)	(1,0)	(1,0)	(1,0)	
L1D -338>	(275,7)	(-8,1)	(24,4)	(146,1)	(-128,2)	(458,4)	(466,1)	(251,1)	(247,1)	(148,2)	(338,3)	(424,2)	(1,0)	(1,0)	(1,0)	(1,0)	
L1D -337>	(243,5)	(274,2)	(275,39)	(283,2)	(242,2)	(337,4)	(316,4)	(361,1)	(424,1)	(1,0)	(1,0)	(1,0)	(1,0)	(1,0)	(1,0)	(1,0)	
L1D -336>	(275,2)	(-128,14)	(471,1)	(122,1)	(-64,5)	(352,1)	(148,1)	(52,1)	(1,0)	(1,0)	(1,0)	(1,0)	(1,0)	(1,0)	(1,0)	(1,0)	
L1D -335>	(-64,25)	(15,14)	(-128,7)	(112,3)	(344,1)	(1,0)	(1,0)	(1,0)	(1,0)	(1,0)	(1,0)	(1,0)	(1,0)	(1,0)	(1,0)	(1,0)	
L1D -334>	(270,2)	(339,1)	(283,2)	(286,1)	(331,1)	(122,1)	(362,1)	(-11,7)	(-64,6)	(115,1)	(337,1)	(1,0)	(1,0)	(1,0)	(1,0)	(1,0)	
L1D -333>	(66,1)	(0,1)	(333,2)	(1,0)	(1,0)	(1,0)	(1,0)	(1,0)	(1,0)	(1,0)	(1,0)	(1,0)	(1,0)	(1,0)	(1,0)	(1,0)	
L1D -332>	(-128,8)	(122,1)	(332,3)	(1,0)	(1,0)	(1,0)	(1,0)	(1,0)	(1,0)	(1,0)	(1,0)	(1,0)	(1,0)	(1,0)	(1,0)	(1,0)	
L1D -331>	(322,8)	(-128,14)	(2,1)	(0,4)	(315,1)	(494,1)	(-64,10)	(339,1)	(323,1)	(-62,1)	(1,0)	(1,0)	(1,0)	(1,0)	(1,0)	(1,0)	
L1D -330>	(329,6)	(276,2)	(301,1)	(0,8)	(283,1)	(267,5)	(-64,1)	(229,2)	(450,1)	(268,1)	(330,1)	(126,1)	(458,1)	(1,0)	(1,0)	(1,0)	
L1D -329>	(329,2)	(243,1)	(0,5)	(239,1)	(139,1)	(130,1)	(-128,4)	(1,0)	(1,0)	(1,0)	(1,0)	(1,0)	(1,0)	(1,0)	(1,0)	(1,0)	
L1D -328>	(7,14)	(-64,7)	(122,2)	(-128,10)	(10,1)	(2,3)	(312,1)	(328,1)	(-6,4)	(1,0)	(1,0)	(1,0)	(1,0)	(1,0)	(1,0)	(1,0)	
L1D -327>	(-8,1)	(8,4)	(-128,8)	(-64,3)	(78,1)	(265,1)	(400,1)	(5,32)	(-1,5)	(384,1)	(448,1)	(1,0)	(1,0)	(1,0)	(1,0)	(1,0)	
L1D -326>	(-128,12)	(2,5)	(123,1)	(120,1)	(0,1)	(-64,3)	(459,1)	(-52,8)	(-4,1)	(-51,2)	(-3,1)	(6,1)	(1,0)	(1,0)	(1,0)	(1,0)	
L1D -325>	(-11,119)	(-55,0)	(5,0)	(454,0)	(122,0)	(321,0)	(-6,0)	(115,0)	(-5,0)	(255,0)	(2,0)	(197,0)	(-51,0)	(377,0)	(190,0)	(1,0)	
L1D -324>	(-128,3)	(277,1)	(122,12)	(261,1)	(2,1)	(275,2)	(-64,1)	(465,2)	(71,1)	(1,0)	(1,0)	(1,0)	(1,0)	(1,0)	(1,0)	(1,0)	
L1D -323>	(314,2)	(323,1)	(0,3)	(122,3)	(315,1)	(416,1)	(120,1)	(1,3)	(-64,1)	(1,0)	(1,0)	(1,0)	(1,0)	(1,0)	(1,0)	(1,0)	
L1D -322>	(267,5)	(67,3)	(131,2)	(-64,1)	(123,3)	(-63,2)	(315,5)	(322,3)	(0,44)	(96,2)	(128,5)	(6,1)	(-3,16)	(8,2)	(409,5)	(3,1)	
L1D -321>	(8,2)	(2,2)	(90,1)	(-64,18)	(321,6)	(66,2)	(349,1)	(454,1)	(0,2)	(-1,3)	(499,1)	(6,1)	(345,1)	(1,0)	(1,0)	(1,0)	
L1D -320>	(7,5)	(320,4)	(448,2)	(0,2)	(9,1)	(122,4)	(107,1)	(114,3)	(18,1)	(-1,2)	(120,1)	(434,1)	(-64,9)	(-72,2)	(2,1)	(1,0)	
L1D -319>	(9,22)	(447,1)	(40,1)	(6,1)	(446,2)	(113,1)	(0,1)	(121,1)	(104,1)	(448,1)	(105,1)	(1,0)	(1,0)	(1,0)	(1,0)	(1,0)	
L1D -318>	(40,5)	(91,2)	(9,5)	(326,1)	(24,1)	(0,5)	(4,3)	(317,3)	(-14,2)	(199,1)	(14,1)	(197,1)	(-11,1)	(-7,1)	(-64,13)	(183,1)	
L1D -317>	(-9,1)	(0,1)	(226,1)	(318,1)	(317,8)	(155,1)	(7,1)	(-15,4)	(2,10)	(133,1)	(32,1)	(330,1)	(-64,3)	(4,6)	(-51,1)	(1,0)	
L1D -316>	(0,3)	(-11,10)	(-6,4)	(316,7)	(238,1)	(-80,1)	(122,20)	(115,5)	(8,1)	(64,1)	(479,1)	(3,2)	(192,1)	(213,1)	(-7,3)	(114,2)	
L1D -315>	(-64,5)	(0,5)	(121,3)	(113,1)	(434,1)	(285,2)	(128,1)	(315,2)	(1,0)	(1,0)	(1,0)	(1,0)	(1,0)	(1,0)	(1,0)	(1,0)	
L1D -314>	(-5,2)	(4,1)	(-64,47)	(0,1)	(240,1)	(-30,1)	(234,1)	(-29,1)	(120,2)	(8,1)	(314,4)	(316,1)	(-4,1)	(1,0)	(1,0)	(1,0)	
L1D -313>	(-5,13)	(313,10)	(-3,3)	(8,1)	(445,1)	(5,1)	(0,1)	(457,1)	(197,10)	(414,1)	(-4,4)	(-128,3)	(377,1)	(-64,1)	(1,0)	(1,0)	
L1D -312>	(312,28)	(320,3)	(440,2)	(-64,30)	(6,2)	(-7,12)	(-8,1)	(-128,3)	(243,3)	(259,1)	(0,1)	(1,0)	(1,0)	(1,0)	(1,0)	(1,0)	
L1D -311>	(32,19)	(-8,1)	(-64,28)	(3,27)	(255,3)	(60,2)	(311,1)	(330,6)	(113,2)	(8,1)	(197,1)	(-128,8)	(1,0)	(1,0)	(1,0)	(1,0)	
L1D -310>	(91,5)	(1,2)	(199,2)	(82,3)	(168,8)	(-9,3)	(4,2)	(3,3)	(12,3)	(-10,1)	(182,1)	(-64,2)	(330,2)	(147,1)	(133,1)	(151,1)	
L1D -309>	(457,21)	(-64,53)	(12,2)	(133,2)	(-9,14)	(308,3)	(-8,2)	(199,16)	(330,4)	(197,2)	(2,2)	(180,1)	(179,1)	(220,1)	(186,1)	(208,1)	
L1D -308>	(106,1)	(192,1)	(5,6)	(372,1)	(300,1)	(0,2)	(-7,1)	(16,2)	(309,1)	(101,8)	(104,3)	(165,3)	(95,2)	(109,2)	(111,1)	(83,2)	
L1D -307>	(3,2)	(440,3)	(307,2)	(-64,2)	(18,2)	(335,1)	(1,0)	(1,0)	(1,0)	(1,0)	(1,0)	(1,0)	(1,0)	(1,0)	(1,0)	(1,0)	
L1D -306>	(24,19)	(163,1)	(0,6)	(-64,1)	(3,3)	(470,1)	(93,2)	(148,1)	(299,1)	(306,1)	(104,1)	(1,0)	(1,0)	(1,0)	(1,0)	(1,0)	
L1D -305>	(457,10)	(-64,47)	(4,5)	(0,2)	(-11,5)	(264,3)	(275,3)	(20,1)	(305,1)	(272,2)	(24,21)	(-8,2)	(7,4)	(409,6)	(26,2)	(432,3)	
L1D -304>	(3,1)	(0,5)	(7,5)	(-14,1)	(100,1)	(-12,4)	(304,1)	(-128,50)	(4,1)	(-64,4)	(9,1)	(374,1)	(357,1)	(74,1)	(1,0)	(1,0)	
L1D -303>	(0,7)	(1,1)	(24,2)	(381,1)	(322,2)	(-64,11)	(3,1)	(27,2)	(-16,2)	(2,1)	(32,2)	(1,0)	(1,0)	(1,0)	(1,0)	(1,0)	
L1D -302>	(310,1)	(1,4)	(322,1)	(7,1)	(-64,6)	(-1,1)	(302,4)	(159,6)	(-2,9)	(409,17)	(-128,5)	(301,1)	(384,1)	(416,1)	(118,1)	(0,1)	
L1D -301>	(-64,43)	(24,14)	(457,3)	(-8,21)	(449,4)	(9,8)	(-18,3)	(301,1)	(-4,11)	(64,1)	(203,1)	(57,1)	(-1,5)	(0,9)	(2,1)	(7,1)	
L1D -300>	(-64,7)	(-4,5)	(-8,2)	(0,13)	(300,9)	(94,1)	(183,11)	(66,2)	(57,2)	(1,1)	(9,2)	(197,3)	(192,3)	(157,4)	(75,1)	(-144,1)	
L1D -299>	(7,1)	(246,1)	(335,1)	(-128,1)	(-76,1)	(121,2)	(448,1)	(299,1)	(-64,2)	(14,1)	(1,0)	(1,0)	(1,0)	(1,0)	(1,0)	(1,0)	
L1D -298>	(1,3)	(297,1)	(-24,9)	(113,1)	(-13,21)	(6,1)	(-64,1)	(15,2)	(298,2)	(1,0)	(1,0)	(1,0)	(1,0)	(1,0)	(1,0)	(1,0)	
L1D -297>	(18,2)	(1,63)	(0,26)	(-64,9)	(457,4)	(449,2)	(264,2)	(297,2)	(89,1)	(272,1)	(-128,3)	(326,1)	(459,1)	(183,1)	(-79,1)	(6,2)	
L1D -296>	(-4,3)	(296,4)	(0,6)	(-64,39)	(18,1)	(-128,2)	(316,1)	(1,0)	(1,0)	(1,0)	(1,0)	(1,0)	(1,0)	(1,0)	(1,0)	(1,0)	
L1D -295>	(0,3)	(-7,2)	(-16,3)	(454,1)	(355,1)	(-128,9)	(2,2)	(461,1)	(337,2)	(361,2)	(139,1)	(56,1)	(1,0)	(1,0)	(1,0)	(1,0)	
L1D -294>	(313,1)	(27,3)	(255,2)	(-128,1)	(294,1)	(291,1)	(179,1)	(211,1)	(-64,2)	(-24,5)	(9,1)	(15,40)	(287,1)	(8,2)	(169,2)	(12,2)	
L1D -293>	(457,8)	(264,10)	(459,3)	(313,2)	(317,1)	(272,3)	(458,4)	(293,4)	(330,1)	(275,1)	(288,7)	(165,2)	(197,18)	(337,6)	(361,17)	(326,15)	
L1D -292>	(337,4)	(451,2)	(281,2)	(292,18)	(-64,1)	(64,1)	(288,2)	(317,3)	(361,13)	(-9,1)	(326,9)	(246,4)	(459,7)	(344,1)	(-2,1)	(325,2)	
L1D -291>	(255,3)	(264,2)	(458,16)	(57,2)	(48,2)	(66,2)	(263,2)	(298,3)	(280,2)	(2,1)	(330,1)	(272,1)	(258,1)	(183,1)	(287,2)	(281,1)	
L1D -290>	(1,3)	(-8,9)	(3,1)	(263,10)	(0,5)	(275,1)	(197,6)	(342,3)	(290,1)	(377,1)	(-9,2)	(470,1)	(350,1)	(1,0)	(1,0)	(1,0)	
L1D -289>	(457,40)	(264,125)	(280,5)	(267,18)	(354,4)	(272,75)	(260,5)	(263,25)	(275,93)	(288,44)	(265,5)	(183,1)	(290,3)	(271,2)	(250,16)	(-2,4)	
L1D -288>	(-128,7)	(281,10)	(-64,2)	(249,2)	(250,2)	(2,1)	(263,2)	(130,1)	(288,19)	(287,1)	(256,6)	(465,4)	(336,1)	(257,2)	(29,1)	(3,1)	
L1D -287>	(270,1)	(68,1)	(192,1)	(-128,1)	(122,2)	(461,8)	(272,1)	(2,2)	(197,5)	(8,1)	(453,9)	(372,1)	(357,1)	(-64,2)	(1,0)	(1,0)	
L1D -286>	(-11,15)	(7,3)	(393,2)	(-64,2)	(105,1)	(-9,11)	(-7,58)	(-16,6)	(60,3)	(285,3)	(32,1)	(-5,4)	(-8,2)	(1,1)	(-27,2)	(-2,2)	
L1D -285>	(197,3)	(98,2)	(285,7)	(449,2)	(-8,1)	(32,1)	(337,1)	(24,1)	(2,1)	(-32,1)	(-9,4)	(275,1)	(465,2)	(-64,2)	(-16,1)	(94,1)	
L1D -284>	(281,16)	(289,4)	(283,2)	(255,2)	(284,21)	(249,8)	(465,2)	(288,18)	(252,4)	(256,2)	(97,2)	(6,2)	(409,2)	(273,3)	(280,4)	(250,2)	
L1D -283>	(255,17)	(283,3)	(191,3)	(275,5)	(257,2)	(282,3)	(0,9)	(96,16)	(-128,1)	(272,1)	(304,2)	(34,1)	(353,1)	(361,2)	(330,1)	(350,1)	
L1D -282>	(255,3)	(5,2)	(272,2)	(342,4)	(0,20)	(1,16)	(286,2)	(282,6)	(96,1)	(304,2)	(287,1)	(274,2)	(67,1)	(313,2)	(257,2)	(197,15)	
L1D -281>	(256,3)	(449,5)	(-29,1)	(454,2)	(321,2)	(453,3)	(-128,9)	(304,2)	(183,5)	(275,11)	(274,7)	(268,17)	(292,6)	(290,2)	(265,6)	(260,4)	
L1D -280>	(-8,5)	(391,2)	(255,6)	(267,3)	(-26,1)	(347,1)	(256,3)	(249,1)	(114,1)	(-128,10)	(252,7)	(74,1)	(197,1)	(273,1)	(-64,2)	(55,1)	
L1D -279>	(256,23)	(0,9)	(267,13)	(453,33)	(197,8)	(-3,6)	(-128,9)	(-32,3)	(274,14)	(259,2)	(257,5)	(252,3)	(-17,2)	(255,17)	(103,1)	(184,1)	
L1D -278>	(0,61)	(-1,2)	(103,1)	(-128,1)	(-32,1)	(254,2)	(471,3)	(-117,2)	(396,1)	(-64,3)	(263,1)	(246,1)	(379,1)	(24,1)	(271,1)	(23,1)	
L1D -277>	(241,2)	(-5,2)	(368,13)	(326,4)	(360,2)	(365,3)	(275,4)	(0,7)	(-15,3)	(10,1)	(146,1)	(272,1)	(259,1)	(277,43)	(352,5)	(309,2)	
L1D -276>	(-64,9)	(104,6)	(485,2)	(276,67)	(360,3)	(89,17)	(281,2)	(24,1)	(459,1)	(310,2)	(361,10)	(256,4)	(349,1)	(272,1)	(326,1)	(350,1)	
L1D -275>	(350,7)	(343,12)	(274,4)	(307,3)	(437,1)	(317,3)	(0,41)	(361,44)	(326,5)	(368,7)	(330,15)	(459,3)	(-64,8)	(315,3)	(345,2)	(463,4)	
L1D -274>	(276,9)	(326,4)	(-128,3)	(0,12)	(-9,4)	(309,10)	(-2,3)	(360,1)	(249,4)	(1,5)	(16,1)	(274,1)	(-13,2)	(-5,1)	(462,1)	(-64,2)	
L1D -273>	(1,30)	(274,2)	(241,3)	(273,2)	(59,2)	(465,4)	(256,3)	(266,2)	(290,7)	(259,2)	(-64,1)	(249,1)	(-8,1)	(475,1)	(0,2)	(272,5)	
L1D -272>	(0,29)	(256,3)	(268,10)	(1,45)	(16,3)	(-64,9)	(272,9)	(252,3)	(-128,12)	(292,3)	(264,29)	(260,13)	(273,1)	(276,3)	(-26,2)	(291,2)	
L1D -271>	(1,29)	(-128,27)	(263,3)	(248,5)	(428,4)	(0,7)	(252,2)	(-26,2)	(437,13)	(-4,2)	(271,5)	(-64,11)	(264,2)	(272,2)	(270,3)	(445,2)	
L1D -270>	(0,45)	(-14,0)	(-123,0)	(-64,17)	(122,0)	(-4,2)	(1,95)	(-128,7)	(16,6)	(270,3)	(-22,0)	(2,3)	(271,1)	(462,2)	(-5,1)	(-3,1)	
L1D -269>	(384,6)	(8,1)	(466,2)	(468,3)	(-4,20)	(448,3)	(457,1)	(-16,4)	(455,1)	(441,1)	(7,1)	(369,1)	(0,1)	(351,1)	(333,1)	(197,1)	
L1D -268>	(281,15)	(288,17)	(268,5)	(256,72)	(273,6)	(248,8)	(282,4)	(451,3)	(249,7)	(292,1)	(272,3)	(250,5)	(0,4)	(258,9)	(465,13)	(458,2)	
L1D -267>	(95,60)	(288,2)	(-1,2)	(307,3)	(264,2)	(1,19)	(272,2)	(0,16)	(89,5)	(80,10)	(315,8)	(444,12)	(437,1)	(-64,29)	(474,1)	(-128,1)	
L1D -266>	(-1,6)	(248,2)	(0,23)	(266,12)	(250,3)	(267,3)	(1,43)	(-2,2)	(256,3)	(304,2)	(-4,2)	(276,6)	(293,2)	(268,3)	(288,2)	(272,4)	
L1D -265>	(290,6)	(268,45)	(265,11)	(7,4)	(264,7)	(378,5)	(276,9)	(-16,9)	(256,9)	(273,3)	(275,12)	(465,16)	(-64,1)	(304,8)	(288,15)	(292,3)	
L1D -264>	(288,2)	(-16,6)	(465,10)	(282,5)	(-128,9)	(296,8)	(276,4)	(-5,10)	(-64,8)	(256,35)	(5,4)	(-2,12)	(252,99)	(299,6)	(284,15)	(264,44)	
L1D -263>	(245,5)	(437,19)	(-128,19)	(307,3)	(-16,3)	(-13,1)	(264,2)	(8,1)	(265,1)	(104,1)	(201,1)	(197,2)	(0,8)	(420,1)	(10,1)	(137,1)	
L1D -262>	(-64,2)	(1,1)	(262,1)	(-22,1)	(454,1)	(2,2)	(8,1)	(0,8)	(310,1)	(377,3)	(5,3)	(183,4)	(-8,1)	(261,2)	(197,1)	(105,1)	
L1D -261>	(243,4)	(270,9)	(122,22)	(2,22)	(1,7)	(311,2)	(261,21)	(183,26)	(197,2)	(0,9)	(377,2)	(260,1)	(465,4)	(115,9)	(8,7)	(-24,1)	
L1D -260>	(-145,4)	(456,1)	(280,2)	(273,3)	(275,2)	(264,2)	(260,46)	(448,8)	(-1,3)	(122,5)	(319,13)	(268,7)	(121,11)	(465,5)	(8,13)	(112,6)	
L1D -259>	(292,9)	(290,10)	(310,7)	(250,4)	(112,10)	(87,4)	(264,9)	(-1,4)	(120,5)	(105,4)	(416,3)	(121,14)	(7,1)	(0,14)	(122,11)	(2,13)	
L1D -258>	(0,18)	(276,15)	(258,15)	(465,6)	(273,2)	(264,6)	(267,14)	(416,8)	(284,2)	(1,4)	(121,7)	(384,2)	(112,4)	(251,2)	(293,2)	(268,10)	
L1D -257>	(264,29)	(250,18)	(274,4)	(120,5)	(284,5)	(465,18)	(0,58)	(258,20)	(282,5)	(275,29)	(266,5)	(304,7)	(67,5)	(260,29)	(268,88)	(458,1)	
L1D -256>	(465,9)	(297,4)	(256,22)	(121,4)	(1,1)	(289,6)	(0,15)	(304,7)	(260,6)	(288,4)	(453,2)	(257,4)	(283,13)	(268,59)	(282,6)	(232,2)	
L1D -255>	(0,11)	(255,28)	(183,2)	(73,2)	(8,2)	(-8,12)	(-64,3)	(219,4)	(191,2)	(-55,4)	(16,14)	(-86,2)	(197,3)	(121,1)	(71,1)	(110,1)	
L1D -254>	(263,5)	(390,2)	(72,2)	(-7,2)	(254,12)	(197,2)	(7,2)	(-8,4)	(466,2)	(1,6)	(8,7)	(74,1)	(192,1)	(73,1)	(67,2)	(120,1)	
L1D -253>	(262,6)	(357,10)	(320,2)	(114,3)	(-64,3)	(0,3)	(452,8)	(257,4)	(261,2)	(264,2)	(256,3)	(77,1)	(272,1)	(304,3)	(252,1)	(226,1)	
L1D -252>	(7,76)	(-6,0)	(113,0)	(336,0)	(244,0)	(260,0)	(6,4)	(252,5)	(69,0)	(1,0)	(0,1)	(446,0)	(-73,0)	(-10,0)	(273,0)	(55,4)	
L1D -251>	(440,0)	(5,79)	(264,2)	(286,0)	(251,0)	(298,0)	(256,0)	(273,0)	(-7,0)	(-1,11)	(118,1)	(112,0)	(282,0)	(448,1)	(0,0)	(-8,0)	
L1D -250>	(101,22)	(103,31)	(121,65)	(90,25)	(250,80)	(95,3)	(117,12)	(91,12)	(104,47)	(114,8)	(102,11)	(97,3)	(265,25)	(264,7)	(96,1)	(110,9)	
L1D -249>	(264,27)	(357,8)	(256,9)	(273,10)	(272,5)	(-64,1)	(290,2)	(457,3)	(265,4)	(249,4)	(250,4)	(268,4)	(465,4)	(288,4)	(257,3)	(260,4)	
L1D -248>	(-1,2)	(-11,4)	(447,21)	(-140,2)	(236,3)	(256,2)	(268,8)	(257,2)	(-8,4)	(296,2)	(446,10)	(0,1)	(240,3)	(248,2)	(16,1)	(273,1)	
L1D -247>	(326,2)	(197,5)	(337,6)	(16,12)	(183,1)	(255,1)	(-3,1)	(247,1)	(8,43)	(0,13)	(276,1)	(346,4)	(373,4)	(246,1)	(357,1)	(364,1)	
L1D -246>	(-6,2)	(246,8)	(274,2)	(389,2)	(40,8)	(-64,13)	(-7,3)	(56,1)	(16,2)	(8,3)	(396,4)	(-9,3)	(0,6)	(-76,8)	(52,1)	(238,1)	
L1D -245>	(0,14)	(-5,2)	(245,2)	(459,2)	(-15,4)	(56,5)	(93,2)	(430,1)	(246,2)	(244,1)	(438,7)	(285,1)	(146,1)	(249,1)	(260,2)	(341,1)	
L1D -244>	(-57,1)	(-64,10)	(10,4)	(263,1)	(55,2)	(243,2)	(8,1)	(-6,1)	(357,1)	(-48,1)	(-5,2)	(56,2)	(-10,2)	(71,2)	(77,1)	(244,4)	
L1D -243>	(0,5)	(104,3)	(97,3)	(316,1)	(345,7)	(324,2)	(368,2)	(361,6)	(322,1)	(350,2)	(329,1)	(330,2)	(113,1)	(-3,1)	(-64,3)	(315,1)	
L1D -242>	(1,3)	(210,1)	(-64,2)	(55,1)	(435,24)	(431,4)	(-29,1)	(317,1)	(361,1)	(330,1)	(261,1)	(0,3)	(-72,1)	(1,0)	(1,0)	(1,0)	
L1D -241>	(1,2)	(4,3)	(246,5)	(274,11)	(-9,29)	(-64,4)	(10,6)	(209,4)	(434,2)	(448,2)	(79,1)	(245,1)	(-14,1)	(0,5)	(385,1)	(387,1)	
L1D -240>	(79,1)	(-64,19)	(64,78)	(-55,1)	(-60,1)	(447,1)	(56,4)	(40,0)	(240,1)	(-12,0)	(-73,0)	(1,0)	(1,0)	(1,0)	(1,0)	(1,0)	
L1D -239>	(0,7)	(79,1)	(1,9)	(316,2)	(-64,16)	(315,2)	(320,1)	(-9,3)	(357,2)	(56,2)	(10,2)	(-7,1)	(238,1)	(1,0)	(1,0)	(1,0)	
L1D -238>	(-64,8)	(266,7)	(185,3)	(237,3)	(446,3)	(238,9)	(0,3)	(404,5)	(398,3)	(430,1)	(275,2)	(-9,7)	(174,1)	(450,4)	(357,2)	(221,1)	
L1D -237>	(56,2)	(309,7)	(251,9)	(260,1)	(303,2)	(237,5)	(283,1)	(460,1)	(55,3)	(377,2)	(404,1)	(13,3)	(229,2)	(435,1)	(-64,2)	(0,2)	
L1D -236>	(8,2)	(-64,114)	(437,2)	(224,1)	(55,1)	(426,1)	(427,4)	(232,2)	(236,6)	(-144,3)	(9,1)	(264,1)	(423,1)	(0,1)	(56,1)	(304,1)	
L1D -235>	(-64,2)	(-1,2)	(395,6)	(284,1)	(68,4)	(315,2)	(444,2)	(235,1)	(272,2)	(307,1)	(311,3)	(430,1)	(338,3)	(33,1)	(32,1)	(52,1)	
L1D -234>	(47,1)	(8,1)	(32,2)	(-8,1)	(-64,3)	(-2,1)	(13,2)	(0,1)	(233,1)	(-66,1)	(253,1)	(261,1)	(1,0)	(1,0)	(1,0)	(1,0)	
L1D -233>	(236,2)	(291,1)	(433,1)	(233,3)	(68,1)	(442,1)	(0,2)	(232,2)	(272,1)	(8,2)	(-64,1)	(349,1)	(1,0)	(1,0)	(1,0)	(1,0)	
L1D -232>	(-64,8)	(-15,2)	(315,7)	(232,13)	(300,6)	(292,15)	(220,5)	(429,5)	(271,2)	(-128,1)	(203,1)	(400,2)	(191,1)	(224,3)	(431,1)	(1,18)	
L1D -231>	(255,1)	(191,1)	(200,1)	(195,1)	(208,1)	(0,1)	(-64,9)	(165,1)	(395,90)	(284,16)	(-57,1)	(226,4)	(78,2)	(1,0)	(1,0)	(1,0)	
L1D -230>	(-64,2)	(301,1)	(230,2)	(357,1)	(223,2)	(78,7)	(0,2)	(79,1)	(1,0)	(1,0)	(1,0)	(1,0)	(1,0)	(1,0)	(1,0)	(1,0)	
L1D -229>	(-64,6)	(8,2)	(243,2)	(301,2)	(229,5)	(442,2)	(217,2)	(182,1)	(419,19)	(245,1)	(415,1)	(42,1)	(-1,1)	(214,1)	(225,1)	(0,1)	
L1D -228>	(9,8)	(8,3)	(-1,2)	(415,3)	(296,13)	(228,5)	(419,4)	(1,2)	(292,8)	(315,9)	(300,7)	(236,6)	(24,1)	(429,14)	(290,1)	(313,1)	
L1D -227>	(320,1)	(-1,5)	(8,1)	(227,23)	(-64,2)	(68,15)	(2,2)	(-248,1)	(82,1)	(-242,1)	(357,7)	(-73,2)	(21,1)	(311,1)	(338,2)	(395,1)	
L1D -226>	(0,43)	(265,1)	(1,2)	(21,12)	(-55,7)	(127,5)	(226,19)	(188,2)	(222,2)	(-60,6)	(310,5)	(-128,2)	(-64,2)	(-243,3)	(28,12)	(24,23)	
L1D -225>	(24,16)	(1,12)	(0,10)	(28,2)	(232,2)	(218,5)	(-2,9)	(225,7)	(236,6)	(-64,4)	(227,6)	(18,1)	(21,3)	(16,1)	(-257,3)	(139,1)	
L1D -224>	(0,8)	(211,8)	(-64,62)	(-222,3)	(224,12)	(66,4)	(208,4)	(16,1)	(226,3)	(236,3)	(232,1)	(433,1)	(250,1)	(251,1)	(-248,3)	(199,10)	
L1D -223>	(71,4)	(-5,1)	(223,5)	(64,1)	(0,5)	(3,1)	(227,19)	(2,2)	(-64,12)	(302,1)	(192,1)	(387,15)	(276,3)	(67,2)	(79,2)	(1,0)	
L1D -222>	(226,7)	(411,3)	(446,4)	(51,2)	(53,1)	(-186,1)	(1,4)	(-257,2)	(-183,2)	(239,1)	(57,2)	(49,6)	(17,1)	(33,5)	(208,11)	(41,1)	
L1D -221>	(-3,1)	(-64,2)	(1,3)	(24,1)	(78,2)	(-8,1)	(0,1)	(-17,1)	(310,2)	(-175,12)	(16,1)	(221,1)	(32,4)	(79,1)	(197,1)	(67,1)	
L1D -220>	(-9,6)	(2,4)	(24,7)	(0,17)	(-1,5)	(1,2)	(208,4)	(8,3)	(414,2)	(228,3)	(209,2)	(7,2)	(-175,6)	(-64,11)	(-179,3)	(-258,2)	
L1D -219>	(-9,6)	(-258,3)	(-177,1)	(72,2)	(232,2)	(211,3)	(-267,3)	(255,6)	(7,4)	(0,3)	(24,3)	(-276,4)	(395,4)	(-64,7)	(-126,3)	(262,2)	
L1D -218>	(208,3)	(193,3)	(400,4)	(0,31)	(-2,7)	(-9,2)	(-191,2)	(209,4)	(51,9)	(21,5)	(1,8)	(270,1)	(217,6)	(-36,2)	(8,2)	(203,8)	
L1D -217>	(0,5)	(210,2)	(16,2)	(316,1)	(60,2)	(217,7)	(-2,6)	(-184,1)	(-248,7)	(79,2)	(232,3)	(209,3)	(211,1)	(208,1)	(4,1)	(80,4)	
L1D -216>	(43,21)	(-64,4)	(192,3)	(0,21)	(407,40)	(195,5)	(27,22)	(204,32)	(193,5)	(35,1)	(39,9)	(-256,4)	(384,4)	(191,27)	(203,19)	(26,2)	
L1D -215>	(-64,2)	(0,45)	(379,10)	(-257,14)	(255,14)	(219,6)	(268,2)	(-118,3)	(191,4)	(1,1)	(-192,7)	(208,1)	(407,6)	(279,1)	(197,1)	(403,7)	
L1D -214>	(0,62)	(13,2)	(8,10)	(214,2)	(-258,4)	(406,7)	(410,2)	(409,4)	(-64,4)	(182,3)	(-266,2)	(-194,2)	(2,2)	(1,7)	(202,4)	(-128,4)	
L1D -213>	(0,36)	(-249,8)	(-251,2)	(392,4)	(-259,4)	(-64,7)	(15,2)	(64,3)	(-252,9)	(213,9)	(296,1)	(-194,2)	(2,6)	(86,1)	(85,4)	(93,1)	
L1D -212>	(32,2)	(0,16)	(212,104)	(-7,2)	(-238,4)	(-197,2)	(80,10)	(38,4)	(41,2)	(191,5)	(101,2)	(-254,8)	(16,3)	(-260,1)	(1,3)	(310,8)	
L1D -211>	(-259,6)	(211,5)	(83,9)	(15,2)	(-249,2)	(-251,3)	(195,3)	(-2,2)	(0,10)	(168,2)	(-64,20)	(1,6)	(-198,6)	(294,1)	(-175,4)	(401,2)	
L1D -210>	(8,9)	(0,7)	(128,3)	(210,10)	(-2,6)	(82,1)	(-64,5)	(1,4)	(209,5)	(310,2)	(311,3)	(-183,3)	(-9,2)	(-1,1)	(-24,1)	(41,1)	
L1D -209>	(-139,4)	(-259,2)	(-256,15)	(79,3)	(203,2)	(115,3)	(-200,4)	(9,4)	(179,2)	(-9,8)	(83,7)	(8,5)	(81,2)	(0,5)	(1,1)	(7,1)	
L1D -208>	(80,11)	(208,74)	(-128,5)	(5,2)	(404,3)	(-64,8)	(398,2)	(33,2)	(-16,6)	(8,1)	(-136,1)	(35,4)	(72,1)	(-264,13)	(-200,30)	(9,2)	
L1D -207>	(-258,7)	(0,39)	(209,3)	(-247,8)	(-265,3)	(-232,22)	(-64,44)	(207,13)	(404,6)	(168,5)	(364,18)	(-21,3)	(-200,16)	(5,9)	(-7,6)	(7,4)	
L1D -206>	(-128,2)	(0,6)	(189,2)	(402,2)	(80,3)	(206,13)	(-252,1)	(-2,1)	(-143,1)	(250,1)	(404,86)	(398,30)	(-64,4)	(-21,3)	(276,12)	(185,4)	
L1D -205>	(0,9)	(-64,8)	(221,2)	(205,15)	(246,4)	(8,5)	(377,5)	(384,13)	(185,18)	(233,2)	(-24,3)	(402,6)	(393,2)	(213,3)	(404,121)	(197,1)	
L1D -204>	(15,11)	(-249,16)	(27,21)	(43,24)	(85,1)	(209,22)	(-4,106)	(-217,2)	(14,2)	(0,67)	(60,2)	(204,86)	(303,2)	(207,6)	(208,21)	(-204,3)	
L1D -203>	(192,8)	(-249,7)	(15,4)	(63,9)	(69,9)	(-205,19)	(-50,3)	(72,4)	(215,1)	(238,2)	(198,2)	(0,14)	(203,7)	(-128,4)	(255,5)	(-64,70)	
L1D -202>	(63,5)	(69,5)	(-249,9)	(15,6)	(-1,12)	(-206,37)	(-259,5)	(192,7)	(7,5)	(0,8)	(202,11)	(90,1)	(-128,3)	(213,14)	(-228,6)	(87,4)	
L1D -201>	(-194,7)	(-1,10)	(63,10)	(69,10)	(208,13)	(211,3)	(209,10)	(0,22)	(-264,23)	(-5,3)	(-8,9)	(191,6)	(-24,6)	(197,13)	(201,9)	(313,3)	
L1D -200>	(-1,10)	(-64,30)	(200,23)	(-132,4)	(115,4)	(203,4)	(-18,5)	(-9,14)	(306,1)	(241,3)	(196,8)	(0,12)	(209,38)	(8,8)	(208,26)	(38,7)	
L1D -199>	(-64,44)	(356,7)	(183,4)	(9,8)	(-28,2)	(0,7)	(199,7)	(-21,2)	(-7,1)	(-57,1)	(-248,1)	(12,1)	(23,2)	(-2,1)	(68,1)	(-260,1)	
L1D -198>	(201,4)	(-9,6)	(-64,15)	(0,10)	(-128,9)	(197,4)	(183,3)	(409,8)	(267,3)	(-3,7)	(1,3)	(-21,2)	(87,1)	(-248,10)	(9,4)	(-216,1)	
L1D -197>	(1,3)	(393,5)	(5,14)	(377,26)	(-67,2)	(197,38)	(0,103)	(183,13)	(185,3)	(-69,2)	(199,3)	(50,1)	(-64,4)	(-3,3)	(313,3)	(60,2)	
L1D -196>	(0,31)	(124,3)	(-24,10)	(1,3)	(-206,8)	(311,4)	(64,4)	(-228,10)	(-213,7)	(209,4)	(196,68)	(49,19)	(-197,27)	(213,7)	(85,8)	(-182,4)	
L1D -195>	(274,7)	(238,8)	(190,7)	(-64,4)	(176,8)	(195,30)	(-214,16)	(14,9)	(240,4)	(241,3)	(-1,9)	(-228,3)	(91,1)	(74,2)	(92,2)	(213,7)	
L1D -194>	(-64,23)	(66,5)	(220,4)	(-184,9)	(194,22)	(-128,14)	(-60,7)	(47,3)	(209,6)	(317,3)	(51,6)	(-275,20)	(131,5)	(155,6)	(83,10)	(90,1)	
L1D -193>	(155,14)	(193,19)	(208,4)	(8,65)	(79,4)	(0,7)	(177,6)	(154,4)	(-242,8)	(-64,20)	(317,1)	(372,3)	(-289,37)	(3,3)	(-92,5)	(209,6)	
L1D -192>	(-9,8)	(98,4)	(-64,6)	(154,58)	(192,57)	(-279,9)	(0,24)	(7,15)	(155,19)	(302,1)	(219,2)	(-257,5)	(208,3)	(-242,16)	(-175,20)	(36,2)	
L1D -191>	(175,7)	(-64,30)	(153,82)	(-208,8)	(191,25)	(154,25)	(9,6)	(0,11)	(5,1)	(-289,3)	(6,6)	(-1,9)	(52,6)	(44,12)	(-216,11)	(-224,4)	
L1D -190>	(152,107)	(153,27)	(-64,29)	(5,5)	(7,6)	(255,3)	(-228,4)	(-232,6)	(197,16)	(9,4)	(-2,1)	(-289,19)	(1,5)	(0,15)	(190,6)	(151,5)	
L1D -189>	(152,106)	(-172,7)	(151,103)	(293,4)	(-26,5)	(157,9)	(-55,1)	(-64,6)	(-175,57)	(-150,3)	(204,9)	(-1,5)	(7,3)	(6,4)	(0,11)	(4,3)	
L1D -188>	(-197,6)	(151,90)	(150,55)	(156,4)	(1,17)	(0,27)	(187,2)	(172,9)	(-32,8)	(2,26)	(188,7)	(5,12)	(-64,8)	(6,3)	(-256,8)	(-205,47)	
L1D -187>	(266,9)	(-1,58)	(150,50)	(-64,22)	(-177,2)	(2,29)	(-158,22)	(187,33)	(0,27)	(-206,69)	(191,10)	(219,12)	(255,21)	(183,5)	(48,5)	(5,10)	
L1D -186>	(213,11)	(148,6)	(186,44)	(-279,7)	(2,101)	(197,8)	(60,4)	(-4,13)	(47,5)	(-228,4)	(-64,18)	(-128,4)	(-206,17)	(7,10)	(5,14)	(-5,21)	
L1D -185>	(-279,10)	(148,2)	(-5,22)	(-2,4)	(-8,92)	(5,12)	(153,10)	(-72,13)	(185,28)	(-139,5)	(-158,6)	(7,25)	(2,37)	(1,7)	(-4,9)	(-64,12)	
L1D -184>	(183,12)	(-5,45)	(184,24)	(-64,52)	(-205,21)	(-216,31)	(7,29)	(1,22)	(-224,12)	(-1,6)	(168,1)	(5,30)	(6,15)	(-4,8)	(2,102)	(-288,5)	
L1D -183>	(6,12)	(-1,5)	(-5,28)	(-289,110)	(183,40)	(255,4)	(197,2)	(1,13)	(-273,4)	(-276,9)	(-18,6)	(-282,4)	(5,20)	(2,87)	(7,37)	(-4,11)	
L1D -182>	(-3,2)	(163,92)	(-4,2)	(1,4)	(-5,8)	(182,5)	(7,1)	(-19,13)	(6,5)	(-9,5)	(5,3)	(-15,2)	(-134,1)	(-2,1)	(193,0)	(2,17)	
L1D -181>	(-5,83)	(-1,10)	(-272,13)	(0,17)	(-4,8)	(1,47)	(-284,11)	(-64,79)	(181,28)	(5,14)	(2,123)	(7,41)	(-26,1)	(-8,8)	(6,31)	(-264,30)	
L1D -180>	(-289,4)	(6,9)	(-5,64)	(-4,4)	(180,34)	(-39,2)	(-197,57)	(1,38)	(-1,2)	(0,7)	(-284,11)	(5,1)	(-21,3)	(7,16)	(2,47)	(-47,2)	
L1D -179>	(-5,120)	(179,67)	(1,77)	(6,10)	(32,4)	(163,11)	(2,106)	(-4,17)	(5,45)	(0,3)	(7,47)	(51,14)	(-64,50)	(-206,4)	(-1,7)	(178,1)	
L1D -178>	(-5,103)	(50,6)	(-72,1)	(163,88)	(213,4)	(-289,3)	(1,46)	(6,16)	(-279,2)	(178,55)	(5,27)	(-1,6)	(-4,16)	(-267,2)	(128,17)	(2,76)	
L1D -177>	(0,2)	(-47,4)	(-5,68)	(1,41)	(5,12)	(-64,27)	(56,1)	(6,1)	(-39,3)	(49,5)	(-103,1)	(177,20)	(-289,1)	(163,3)	(2,27)	(7,5)	
L1D -176>	(300,12)	(112,76)	(60,37)	(49,27)	(176,22)	(50,6)	(-5,35)	(59,11)	(292,15)	(66,1)	(41,16)	(1,14)	(380,2)	(44,4)	(2,19)	(53,12)	
L1D -175>	(-1,6)	(-5,68)	(175,36)	(-64,82)	(1,38)	(0,1)	(31,1)	(2,35)	(-4,4)	(6,2)	(5,6)	(7,4)	(-103,1)	(-15,1)	(-78,4)	(-6,3)	
L1D -174>	(-287,3)	(-5,68)	(174,64)	(-263,10)	(175,4)	(1,40)	(7,13)	(-64,3)	(2,30)	(-1,3)	(-4,10)	(6,4)	(5,12)	(-279,11)	(163,34)	(-261,1)	
L1D -173>	(-5,68)	(173,56)	(-4,11)	(1,44)	(2,44)	(59,1)	(6,11)	(7,20)	(5,36)	(-1,3)	(-64,2)	(174,8)	(-281,1)	(-39,1)	(-207,1)	(-6,3)	
L1D -172>	(373,2)	(3,4)	(0,3)	(-5,70)	(-64,24)	(1,56)	(172,36)	(-1,2)	(6,20)	(-4,8)	(5,40)	(190,2)	(7,29)	(2,44)	(10,2)	(48,3)	
L1D -171>	(10,3)	(51,10)	(171,54)	(-5,94)	(-64,9)	(-1,7)	(7,41)	(1,120)	(-6,3)	(59,2)	(191,2)	(-275,1)	(-4,13)	(2,96)	(5,78)	(6,54)	
L1D -170>	(170,36)	(-5,87)	(171,3)	(6,28)	(-1,16)	(-4,13)	(1,100)	(10,2)	(7,1)	(-46,1)	(2,106)	(5,31)	(-64,19)	(31,1)	(17,1)	(-6,2)	
L1D -169>	(-5,36)	(169,20)	(1,88)	(-1,2)	(6,2)	(170,3)	(-24,0)	(27,0)	(-70,0)	(2,20)	(-64,0)	(5,9)	(7,6)	(-4,1)	(-6,1)	(-46,1)	
L1D -168>	(-5,37)	(-15,1)	(168,18)	(-6,1)	(1,72)	(0,2)	(6,5)	(-47,1)	(-45,0)	(2,22)	(40,0)	(-4,3)	(5,0)	(10,0)	(169,5)	(21,0)	
L1D -167>	(1,116)	(-5,60)	(-30,2)	(-34,10)	(-291,5)	(167,34)	(-46,2)	(168,6)	(-6,2)	(2,22)	(-45,1)	(-64,1)	(-292,1)	(-47,1)	(-284,1)	(-4,6)	
L1D -166>	(-5,51)	(-31,2)	(1,125)	(-47,3)	(166,39)	(2,19)	(-45,5)	(-35,12)	(6,2)	(-287,2)	(-4,6)	(-271,11)	(167,5)	(-6,1)	(-46,2)	(-216,1)	
L1D -165>	(-5,58)	(24,1)	(1,96)	(166,4)	(21,1)	(2,30)	(165,39)	(177,1)	(0,1)	(-4,7)	(-46,1)	(-45,0)	(10,6)	(-6,0)	(-47,0)	(37,0)	
L1D -164>	(6,3)	(165,6)	(-5,43)	(1,52)	(2,48)	(164,90)	(0,1)	(184,1)	(-14,2)	(21,2)	(10,2)	(-4,47)	(-16,1)	(-37,3)	(-231,26)	(-6,4)	
L1D -163>	(191,56)	(192,35)	(187,58)	(163,94)	(-1,14)	(186,24)	(52,10)	(155,8)	(149,1)	(190,49)	(189,43)	(154,10)	(193,23)	(6,5)	(0,67)	(188,11)	
L1D -162>	(186,22)	(191,25)	(56,9)	(190,23)	(59,19)	(189,28)	(184,12)	(185,22)	(163,1)	(53,5)	(192,5)	(-229,9)	(1,118)	(154,6)	(0,26)	(187,23)	
L1D -161>	(-293,2)	(-46,1)	(2,1)	(21,2)	(1,123)	(15,1)	(35,1)	(10,1)	(-260,1)	(181,4)	(33,2)	(13,0)	(-20,1)	(-64,0)	(161,0)	(0,0)	
L1D -160>	(-64,9)	(-235,3)	(10,2)	(-24,2)	(2,1)	(9,8)	(-41,1)	(68,1)	(0,7)	(1,114)	(-139,3)	(21,2)	(-130,1)	(-2,1)	(7,1)	(181,1)	
L1D -159>	(-4,3)	(7,4)	(10,4)	(160,6)	(1,81)	(21,3)	(107,1)	(-10,1)	(-32,0)	(159,1)	(6,0)	(8,0)	(-25,0)	(0,0)	(-15,0)	(-3,3)	
L1D -158>	(158,1)	(-3,12)	(27,2)	(0,5)	(3,4)	(332,4)	(-123,1)	(-2,1)	(21,2)	(1,106)	(-4,2)	(121,1)	(10,1)	(-43,1)	(7,1)	(14,1)	
L1D -157>	(28,2)	(-199,0)	(-5,0)	(1,108)	(14,0)	(-6,0)	(7,0)	(13,3)	(10,4)	(-128,13)	(31,1)	(-24,2)	(6,4)	(-32,0)	(-4,0)	(27,2)	
L1D -156>	(-128,3)	(16,3)	(-10,2)	(27,1)	(-2,1)	(-6,2)	(6,3)	(28,3)	(203,2)	(-288,1)	(24,1)	(1,64)	(177,2)	(-1,4)	(10,37)	(156,0)	
L1D -155>	(1,25)	(189,4)	(-7,16)	(-1,7)	(10,127)	(9,5)	(-6,1)	(0,6)	(3,6)	(151,5)	(5,65)	(-128,12)	(2,5)	(7,20)	(135,4)	(157,26)	
L1D -154>	(7,16)	(-7,3)	(156,10)	(14,3)	(-35,2)	(151,3)	(133,2)	(134,2)	(-3,3)	(2,5)	(136,3)	(25,2)	(10,90)	(-95,3)	(-260,1)	(24,6)	
L1D -153>	(9,6)	(-8,7)	(163,53)	(10,122)	(13,5)	(-139,25)	(0,15)	(155,15)	(24,13)	(-4,4)	(-30,3)	(120,3)	(19,1)	(21,2)	(7,8)	(-64,4)	
L1D -152>	(10,65)	(6,1)	(2,21)	(9,6)	(0,8)	(-35,2)	(4,3)	(-15,3)	(24,7)	(-3,21)	(-13,6)	(-7,2)	(1,1)	(-292,2)	(7,6)	(-25,1)	
L1D -151>	(-1,4)	(-309,7)	(148,10)	(-20,3)	(0,9)	(-6,1)	(-19,9)	(-301,2)	(4,44)	(54,2)	(-132,3)	(24,12)	(2,39)	(-11,5)	(-26,2)	(-8,18)	
L1D -150>	(1,9)	(4,35)	(2,9)	(-6,92)	(152,1)	(-1,19)	(16,31)	(324,11)	(-64,15)	(-4,25)	(3,22)	(7,59)	(150,7)	(5,19)	(-19,13)	(-2,40)	
L1D -149>	(0,62)	(64,4)	(136,5)	(-5,7)	(7,35)	(8,39)	(-19,22)	(-3,7)	(-50,6)	(-20,11)	(4,6)	(128,9)	(-64,5)	(14,8)	(-139,4)	(151,1)	
L1D -148>	(-128,67)	(0,10)	(133,3)	(148,4)	(-12,1)	(169,5)	(-15,13)	(7,21)	(1,23)	(-10,3)	(-26,4)	(-3,3)	(3,3)	(-19,20)	(9,1)	(-20,8)	
L1D -147>	(64,11)	(-23,5)	(-64,14)	(11,17)	(1,8)	(-128,5)	(-2,11)	(7,52)	(8,22)	(-20,28)	(132,46)	(0,28)	(-4,1)	(-9,5)	(2,4)	(-19,45)	
L1D -146>	(64,4)	(-128,23)	(-15,8)	(7,13)	(-19,35)	(-20,25)	(-4,9)	(-1,4)	(1,65)	(-3,29)	(9,102)	(-8,1)	(-6,2)	(-16,9)	(-2,3)	(0,14)	
L1D -145>	(64,5)	(0,56)	(8,12)	(-2,6)	(-27,7)	(-13,14)	(-20,54)	(-26,5)	(-35,7)	(1,9)	(146,1)	(-19,63)	(-16,41)	(-25,7)	(4,8)	(-15,8)	
L1D -144>	(-9,32)	(15,2)	(-15,5)	(0,46)	(-37,8)	(-20,70)	(-16,28)	(-64,29)	(-63,19)	(-19,63)	(-14,8)	(-25,8)	(-26,4)	(9,15)	(133,5)	(-62,6)	
L1D -143>	(144,4)	(-19,72)	(7,1)	(0,65)	(24,4)	(8,53)	(-14,5)	(5,5)	(-16,19)	(-9,10)	(139,5)	(-59,3)	(-20,67)	(143,11)	(-10,8)	(-61,16)	
L1D -142>	(11,9)	(0,24)	(-25,5)	(-7,4)	(-5,4)	(-20,72)	(1,1)	(-16,43)	(146,2)	(2,8)	(-19,70)	(47,17)	(7,27)	(-22,4)	(-64,4)	(-11,2)	
L1D -141>	(2,36)	(135,7)	(-128,7)	(-22,9)	(0,51)	(-15,1)	(8,6)	(-20,74)	(-8,22)	(-19,66)	(134,9)	(136,7)	(-16,59)	(-27,5)	(133,9)	(16,8)	
L1D -140>	(133,9)	(134,13)	(2,42)	(135,8)	(-16,42)	(-17,32)	(137,5)	(0,58)	(-19,72)	(-20,67)	(11,40)	(8,65)	(-1,1)	(-22,7)	(-9,8)	(-64,25)	
L1D -139>	(-10,17)	(2,14)	(10,15)	(-128,16)	(-20,8)	(-15,7)	(-1,95)	(-5,7)	(4,15)	(8,20)	(-7,4)	(-4,26)	(-3,1)	(-19,14)	(-16,6)	(133,7)	
L1D -138>	(137,5)	(-14,1)	(-1,3)	(5,3)	(-16,32)	(133,11)	(2,35)	(-4,3)	(64,7)	(-59,22)	(-64,3)	(-19,68)	(-20,39)	(15,9)	(134,25)	(136,16)	
L1D -137>	(-19,101)	(2,102)	(-27,1)	(1,7)	(135,9)	(149,3)	(-20,64)	(0,23)	(9,3)	(-2,7)	(-16,37)	(124,8)	(16,9)	(133,37)	(8,11)	(137,37)	
L1D -136>	(2,19)	(133,9)	(134,8)	(144,35)	(16,127)	(-16,27)	(15,8)	(-139,1)	(121,2)	(0,7)	(-6,2)	(136,32)	(128,4)	(4,17)	(-20,54)	(-19,54)	
L1D -135>	(15,18)	(-7,8)	(2,27)	(134,22)	(-1,7)	(133,39)	(0,41)	(-20,97)	(14,4)	(-3,4)	(-8,38)	(-16,46)	(121,1)	(1,6)	(135,35)	(-19,106)	
L1D -134>	(2,39)	(133,3)	(-4,2)	(316,2)	(134,18)	(0,18)	(8,11)	(-19,51)	(13,16)	(-16,22)	(-3,29)	(14,16)	(15,5)	(-20,70)	(1,4)	(-14,0)	
L1D -133>	(3,0)	(-19,8)	(132,104)	(12,0)	(130,57)	(0,9)	(-20,15)	(-31,0)	(122,0)	(-16,1)	(-21,0)	(-7,0)	(13,2)	(133,5)	(7,0)	(2,3)	
L1D -132>	(15,5)	(132,126)	(0,13)	(-20,66)	(-11,1)	(-2,4)	(-16,22)	(2,9)	(122,7)	(8,22)	(-19,127)	(130,34)	(-59,1)	(-40,1)	(-4,4)	(19,11)	
L1D -131>	(-1,2)	(131,4)	(-63,3)	(-59,3)	(-10,4)	(-31,1)	(4,4)	(-65,3)	(-16,43)	(-8,6)	(136,1)	(64,1)	(-20,124)	(-64,4)	(2,3)	(1,15)	
L1D -130>	(132,51)	(130,27)	(-10,47)	(-128,15)	(-1,3)	(0,7)	(8,3)	(-31,1)	(-19,2)	(-20,116)	(-170,2)	(-64,7)	(-65,7)	(-63,12)	(-16,45)	(-14,7)	
L1D -129>	(0,23)	(-64,4)	(-16,33)	(-6,1)	(-1,13)	(7,1)	(-8,2)	(27,1)	(129,126)	(-24,8)	(21,6)	(97,9)	(72,3)	(80,15)	(85,8)	(9,8)	
L1D -128>	(7,24)	(0,22)	(8,22)	(16,97)	(276,21)	(24,32)	(-16,21)	(128,105)	(33,1)	(-1,35)	(283,24)	(9,44)	(10,6)	(129,32)	(267,10)	(17,8)	
L1D -127>	(5,9)	(4,6)	(1,19)	(-41,3)	(0,10)	(-7,1)	(64,2)	(83,6)	(155,2)	(72,2)	(9,2)	(-27,10)	(2,19)	(127,12)	(136,2)	(46,2)	
L1D -126>	(-45,3)	(-7,1)	(0,2)	(-27,78)	(-9,1)	(-8,9)	(-44,4)	(-1,2)	(7,2)	(-179,1)	(-60,4)	(126,11)	(-42,1)	(8,3)	(1,10)	(129,1)	
L1D -125>	(1,5)	(-64,6)	(8,12)	(-193,2)	(-1,14)	(197,3)	(129,10)	(9,3)	(4,2)	(0,14)	(-44,2)	(-4,2)	(-243,5)	(125,13)	(-72,2)	(-2,2)	
L1D -124>	(-27,6)	(126,13)	(32,4)	(-7,6)	(-1,7)	(8,101)	(0,18)	(7,10)	(-193,3)	(-64,5)	(-8,3)	(137,17)	(-59,8)	(124,18)	(2,6)	(-44,12)	
L1D -123>	(123,63)	(-45,8)	(118,4)	(7,3)	(-72,37)	(-8,18)	(4,7)	(-70,72)	(-7,97)	(0,5)	(-5,8)	(64,12)	(2,4)	(125,5)	(-38,8)	(-71,18)	
L1D -122>	(28,2)	(130,97)	(48,6)	(132,44)	(-128,2)	(64,103)	(1,18)	(124,76)	(119,5)	(-8,17)	(14,26)	(-80,2)	(127,2)	(126,3)	(7,1)	(-1,5)	
L1D -121>	(0,2)	(-8,3)	(119,1)	(1,1)	(116,1)	(-14,1)	(-4,2)	(14,4)	(130,1)	(-75,1)	(64,82)	(8,5)	(17,1)	(-278,1)	(7,1)	(139,0)	
L1D -120>	(0,27)	(-14,28)	(-27,4)	(-26,5)	(2,21)	(-4,7)	(15,1)	(-16,83)	(6,1)	(4,5)	(5,4)	(3,5)	(-24,10)	(-23,8)	(1,16)	(-25,8)	
L1D -119>	(-56,5)	(-8,17)	(1,42)	(-151,1)	(3,23)	(-4,107)	(-343,5)	(0,55)	(-3,8)	(6,8)	(64,9)	(130,10)	(-1,13)	(-6,4)	(18,13)	(2,29)	
L1D -118>	(130,55)	(333,3)	(-8,10)	(132,5)	(-1,69)	(1,3)	(8,3)	(14,8)	(103,20)	(-256,8)	(0,9)	(-5,6)	(-32,5)	(-224,2)	(7,3)	(119,5)	
L1D -117>	(130,36)	(-1,24)	(-8,9)	(-9,3)	(-77,2)	(77,2)	(120,2)	(24,2)	(117,6)	(0,33)	(122,2)	(-4,3)	(208,4)	(-51,1)	(-36,1)	(8,32)	
L1D -116>	(-8,41)	(130,23)	(8,5)	(-261,3)	(-4,8)	(0,13)	(60,3)	(9,4)	(-6,2)	(85,5)	(-10,12)	(-1,52)	(-197,12)	(123,9)	(-2,3)	(111,3)	
L1D -115>	(64,11)	(-1,17)	(-8,1)	(-4,2)	(-3,2)	(7,22)	(8,9)	(-16,13)	(115,5)	(103,4)	(21,14)	(5,12)	(0,8)	(-262,5)	(-7,2)	(-77,4)	
L1D -114>	(64,29)	(2,2)	(24,4)	(1,44)	(-1,14)	(57,2)	(-88,1)	(40,16)	(-14,1)	(7,21)	(8,12)	(9,7)	(114,5)	(-16,71)	(11,11)	(-8,4)	
L1D -113>	(0,13)	(64,38)	(-9,16)	(-7,10)	(-16,5)	(113,2)	(8,18)	(72,2)	(-8,3)	(-1,11)	(-94,2)	(56,2)	(-95,1)	(-2,1)	(310,1)	(-72,5)	
L1D -112>	(0,12)	(9,3)	(-1,15)	(-5,2)	(-8,2)	(64,127)	(124,1)	(1,1)	(18,2)	(176,3)	(120,1)	(7,1)	(130,1)	(4,4)	(112,2)	(-12,2)	
L1D -111>	(102,6)	(-5,1)	(-1,44)	(130,3)	(111,18)	(110,3)	(64,8)	(-93,2)	(-8,29)	(9,2)	(-16,3)	(27,2)	(103,5)	(0,4)	(-256,3)	(3,3)	
L1D -110>	(-16,4)	(7,2)	(0,12)	(-8,102)	(204,4)	(36,2)	(-40,2)	(260,1)	(8,20)	(27,6)	(-28,1)	(-200,1)	(64,2)	(43,2)	(9,29)	(24,3)	
L1D -109>	(0,16)	(-9,4)	(-81,14)	(-6,4)	(-7,4)	(-1,5)	(-18,2)	(-8,42)	(100,3)	(-4,3)	(108,2)	(8,16)	(7,3)	(109,2)	(116,1)	(9,1)	
L1D -108>	(130,39)	(132,5)	(-8,23)	(-1,6)	(-302,1)	(107,3)	(0,4)	(-9,3)	(-272,2)	(40,3)	(-48,18)	(1,2)	(115,9)	(16,13)	(4,2)	(103,4)	
L1D -107>	(-9,6)	(-8,9)	(32,2)	(-3,2)	(0,10)	(8,5)	(31,3)	(122,3)	(36,2)	(-24,7)	(-6,3)	(-12,2)	(-1,2)	(2,9)	(-87,2)	(-86,2)	
L1D -106>	(-276,2)	(12,9)	(-25,2)	(-5,7)	(106,2)	(32,7)	(0,2)	(-144,3)	(105,35)	(-24,15)	(-272,2)	(-3,3)	(-4,2)	(-101,3)	(-82,2)	(308,1)	
L1D -105>	(0,3)	(-1,92)	(64,43)	(32,1)	(-254,1)	(-24,1)	(21,12)	(24,3)	(129,1)	(-14,0)	(7,1)	(105,1)	(-9,1)	(112,2)	(2,1)	(1,0)	
L1D -104>	(21,12)	(-14,38)	(130,9)	(1,15)	(2,25)	(64,68)	(36,13)	(-24,13)	(104,6)	(14,2)	(9,48)	(28,7)	(119,3)	(-21,14)	(-7,46)	(0,7)	
L1D -103>	(-1,90)	(0,29)	(103,16)	(76,1)	(28,1)	(-16,6)	(129,5)	(85,1)	(79,1)	(9,0)	(271,0)	(80,2)	(86,1)	(-7,0)	(95,3)	(64,3)	
L1D -102>	(64,11)	(6,29)	(-1,46)	(0,34)	(8,18)	(101,10)	(33,3)	(-8,12)	(-6,60)	(-16,37)	(43,6)	(129,9)	(9,10)	(220,3)	(1,9)	(34,2)	
L1D -101>	(-2,4)	(102,9)	(0,19)	(-24,5)	(-48,1)	(-264,11)	(9,3)	(39,2)	(-1,32)	(8,5)	(308,6)	(-16,8)	(101,12)	(64,11)	(42,5)	(-7,8)	
L1D -100>	(-183,4)	(12,4)	(31,4)	(224,4)	(-104,3)	(16,17)	(64,5)	(-21,5)	(-9,5)	(85,5)	(-32,3)	(27,3)	(253,8)	(-7,14)	(39,8)	(24,1)	
L1D -99>	(-9,40)	(0,12)	(12,3)	(-272,2)	(10,5)	(-8,2)	(1,2)	(-146,2)	(-16,2)	(-32,8)	(-109,2)	(220,7)	(-41,3)	(-3,1)	(31,1)	(-64,1)	
L1D -98>	(12,5)	(11,3)	(0,12)	(4,4)	(-111,3)	(-9,14)	(221,4)	(-32,13)	(8,2)	(87,5)	(-110,9)	(7,13)	(33,5)	(42,2)	(39,4)	(92,23)	
L1D -97>	(185,3)	(64,23)	(-106,2)	(105,7)	(88,4)	(-35,19)	(0,3)	(28,4)	(-1,36)	(129,1)	(42,4)	(-118,3)	(-59,1)	(-24,1)	(-110,2)	(39,1)	
L1D -96>	(184,5)	(207,5)	(-43,18)	(-7,6)	(100,9)	(0,22)	(-58,8)	(88,18)	(-91,2)	(222,6)	(1,2)	(18,5)	(-35,3)	(96,14)	(-90,2)	(64,29)	
L1D -95>	(129,1)	(66,1)	(-3,0)	(4,1)	(-7,1)	(64,80)	(96,1)	(-1,2)	(-60,0)	(100,0)	(-102,0)	(0,14)	(95,1)	(99,2)	(8,1)	(9,4)	
L1D -94>	(-264,5)	(95,4)	(0,10)	(98,1)	(64,19)	(-72,4)	(320,3)	(-58,3)	(94,2)	(88,2)	(-281,9)	(1,3)	(9,5)	(79,3)	(39,4)	(-200,5)	
L1D -93>	(64,63)	(128,17)	(92,3)	(-339,1)	(0,4)	(-275,34)	(6,17)	(129,4)	(85,3)	(-8,18)	(100,3)	(222,28)	(1,11)	(9,19)	(3,4)	(96,3)	
L1D -92>	(75,17)	(-1,5)	(64,73)	(223,14)	(1,5)	(-5,1)	(-41,11)	(4,24)	(0,5)	(89,3)	(23,3)	(76,10)	(253,33)	(-257,4)	(212,23)	(-276,2)	
L1D -91>	(9,6)	(-40,3)	(4,4)	(12,6)	(82,3)	(109,3)	(98,3)	(-181,1)	(-2,5)	(-1,5)	(18,2)	(-118,8)	(-117,10)	(64,62)	(-93,3)	(23,4)	
L1D -90>	(81,3)	(108,4)	(97,3)	(224,32)	(210,38)	(186,4)	(80,21)	(16,4)	(64,10)	(0,5)	(-40,4)	(-18,12)	(90,7)	(93,7)	(223,40)	(158,2)	
L1D -89>	(1,2)	(-15,2)	(3,1)	(-28,1)	(-24,1)	(207,1)	(90,0)	(0,1)	(64,7)	(9,6)	(180,0)	(-14,0)	(-18,1)	(251,0)	(80,72)	(-197,0)	
L1D -88>	(64,70)	(0,7)	(207,1)	(3,1)	(75,1)	(8,2)	(-7,0)	(-14,0)	(1,0)	(-305,1)	(13,0)	(208,2)	(72,0)	(35,0)	(39,0)	(69,0)	
L1D -87>	(64,46)	(8,17)	(251,3)	(80,19)	(-14,10)	(-58,13)	(7,10)	(225,3)	(-8,1)	(0,2)	(145,2)	(-60,4)	(9,4)	(1,5)	(224,52)	(86,2)	
L1D -86>	(64,111)	(-3,9)	(8,64)	(-1,41)	(0,21)	(4,10)	(6,3)	(82,11)	(269,4)	(-279,6)	(90,1)	(225,23)	(-102,2)	(145,2)	(182,3)	(204,2)	
L1D -85>	(-1,16)	(-18,3)	(-3,13)	(95,1)	(-90,2)	(-16,15)	(0,29)	(-283,2)	(64,20)	(-289,3)	(-216,5)	(-224,4)	(129,15)	(6,3)	(80,3)	(-48,2)	
L1D -84>	(5,10)	(-3,7)	(-1,3)	(226,15)	(197,14)	(72,12)	(64,25)	(212,15)	(225,25)	(-289,17)	(28,2)	(1,16)	(18,3)	(-27,3)	(13,5)	(3,4)	
L1D -83>	(-251,3)	(0,20)	(196,29)	(4,5)	(-48,9)	(72,38)	(64,26)	(-7,4)	(75,4)	(100,1)	(9,9)	(209,11)	(197,2)	(47,7)	(213,3)	(31,4)	
L1D -82>	(0,20)	(18,3)	(66,9)	(-8,5)	(72,17)	(64,12)	(86,1)	(-24,7)	(100,2)	(-9,7)	(178,2)	(74,13)	(-16,4)	(-277,2)	(195,3)	(210,18)	
L1D -81>	(-2,2)	(-21,2)	(-27,7)	(0,2)	(90,9)	(37,2)	(64,7)	(-128,3)	(86,1)	(72,95)	(-7,1)	(194,1)	(226,3)	(-1,1)	(21,1)	(7,3)	
L1D -80>	(13,1)	(64,99)	(56,2)	(24,2)	(8,0)	(207,0)	(200,1)	(-7,0)	(87,1)	(0,12)	(82,2)	(66,1)	(208,0)	(60,1)	(9,0)	(80,1)	
L1D -79>	(-7,1)	(194,1)	(0,3)	(64,82)	(-1,25)	(-3,10)	(-36,5)	(-4,3)	(-5,10)	(79,1)	(-2,2)	(16,2)	(1,2)	(1,0)	(1,0)	(1,0)	
L1D -78>	(5,1)	(95,1)	(0,11)	(-24,8)	(8,7)	(-3,53)	(-1,110)	(64,2)	(162,1)	(78,2)	(3,1)	(-47,0)	(-200,0)	(-35,0)	(-17,0)	(129,2)	
L1D -77>	(77,6)	(0,18)	(-3,37)	(-1,99)	(1,18)	(56,13)	(84,6)	(64,22)	(129,9)	(191,1)	(68,14)	(82,12)	(86,5)	(75,3)	(-228,5)	(130,15)	
L1D -76>	(128,5)	(12,6)	(1,10)	(14,2)	(-1,29)	(129,82)	(0,37)	(3,3)	(64,11)	(68,2)	(5,2)	(-3,3)	(10,8)	(130,5)	(84,3)	(28,5)	
L1D -75>	(3,3)	(1,7)	(130,5)	(68,3)	(0,26)	(28,1)	(22,2)	(2,2)	(18,4)	(129,76)	(64,48)	(84,12)	(9,5)	(75,26)	(-277,2)	(-1,19)	
L1D -74>	(0,44)	(-1,14)	(-40,3)	(193,4)	(209,4)	(13,34)	(-278,3)	(129,90)	(2,1)	(64,15)	(1,7)	(74,10)	(130,3)	(-56,6)	(-28,3)	(200,5)	
L1D -73>	(64,46)	(0,19)	(192,6)	(-1,41)	(1,15)	(130,10)	(129,68)	(76,4)	(-3,1)	(9,2)	(24,22)	(95,1)	(-7,3)	(73,8)	(12,1)	(13,2)	
L1D -72>	(64,73)	(266,2)	(21,1)	(250,7)	(67,2)	(264,1)	(34,2)	(-3,1)	(12,1)	(85,1)	(-1,3)	(129,28)	(72,23)	(2,1)	(0,11)	(75,1)	
L1D -71>	(64,19)	(1,67)	(130,66)	(-9,3)	(0,4)	(194,0)	(-1,3)	(71,6)	(-36,0)	(24,1)	(129,10)	(207,1)	(56,0)	(91,0)	(8,0)	(51,0)	
L1D -70>	(21,0)	(-10,0)	(129,75)	(0,23)	(-1,10)	(47,0)	(64,0)	(85,2)	(132,0)	(196,0)	(80,0)	(62,0)	(54,0)	(101,0)	(89,0)	(90,0)	
L1D -69>	(70,17)	(5,21)	(64,13)	(-64,6)	(60,14)	(63,8)	(-3,4)	(69,1)	(68,15)	(12,38)	(35,7)	(-16,7)	(10,11)	(14,8)	(128,9)	(0,24)	
L1D -68>	(179,10)	(60,12)	(-36,5)	(64,34)	(1,5)	(-18,7)	(-8,96)	(-9,1)	(22,4)	(11,3)	(53,10)	(13,33)	(204,3)	(24,6)	(-17,3)	(-7,41)	
L1D -67>	(67,15)	(9,3)	(-248,1)	(-15,53)	(0,113)	(179,7)	(64,40)	(61,2)	(104,2)	(-4,10)	(49,12)	(196,2)	(194,2)	(-1,3)	(24,3)	(13,2)	
L1D -66>	(199,10)	(57,12)	(64,26)	(8,4)	(67,19)	(-9,23)	(-10,39)	(0,25)	(51,4)	(65,29)	(47,7)	(12,6)	(71,5)	(13,9)	(72,11)	(73,44)	
L1D -65>	(64,121)	(70,4)	(7,0)	(185,0)	(0,1)	(1,4)	(72,1)	(27,0)	(-3,3)	(31,0)	(-13,0)	(2,31)	(-6,6)	(-7,12)	(128,1)	(65,1)	
L1D -64>	(264,5)	(72,29)	(73,11)	(64,66)	(66,7)	(-64,16)	(232,11)	(312,3)	(248,2)	(56,8)	(256,2)	(280,3)	(68,10)	(0,6)	(292,1)	(74,8)	
L1D -63>	(64,54)	(-1,6)	(-9,1)	(60,1)	(207,0)	(-200,5)	(5,2)	(147,0)	(191,33)	(-8,3)	(87,2)	(-264,2)	(63,2)	(1,73)	(72,1)	(12,11)	
L1D -62>	(229,1)	(52,1)	(64,26)	(62,105)	(-26,2)	(-1,1)	(63,1)	(66,1)	(6,0)	(20,0)	(-14,0)	(190,0)	(176,0)	(0,3)	(1,9)	(-70,2)	
L1D -61>	(14,0)	(0,0)	(58,94)	(69,11)	(-276,0)	(189,0)	(11,0)	(61,0)	(-303,0)	(-7,0)	(64,1)	(5,6)	(38,0)	(32,0)	(-175,1)	(12,11)	
L1D -60>	(62,68)	(63,40)	(64,91)	(60,10)	(-19,1)	(61,14)	(197,5)	(-1,10)	(-277,19)	(204,53)	(-12,23)	(180,3)	(-33,10)	(5,3)	(3,7)	(0,9)	
L1D -59>	(74,1)	(48,15)	(196,5)	(64,23)	(-12,3)	(43,2)	(-5,2)	(0,18)	(61,2)	(112,88)	(119,2)	(30,2)	(-10,35)	(-260,3)	(65,5)	(-27,10)	
L1D -58>	(1,17)	(-35,58)	(58,68)	(48,18)	(229,6)	(-1,24)	(47,22)	(64,122)	(12,15)	(56,12)	(5,25)	(53,2)	(0,7)	(-72,4)	(2,7)	(-71,53)	
L1D -57>	(57,67)	(47,71)	(34,1)	(64,90)	(10,2)	(42,5)	(46,20)	(-73,14)	(-2,11)	(120,2)	(-72,114)	(1,3)	(44,6)	(55,54)	(2,7)	(0,4)	
L1D -56>	(-8,2)	(56,16)	(64,67)	(43,4)	(-6,3)	(-73,31)	(-74,1)	(45,4)	(1,2)	(-3,2)	(46,41)	(54,40)	(65,3)	(7,2)	(0,29)	(112,16)	
L1D -55>	(55,73)	(-74,46)	(46,1)	(45,41)	(-4,24)	(32,71)	(191,27)	(-14,33)	(1,44)	(64,79)	(53,21)	(40,47)	(30,5)	(-75,6)	(100,8)	(44,12)	
L1D -54>	(31,63)	(43,9)	(29,1)	(64,13)	(39,91)	(4,3)	(-76,3)	(-25,4)	(52,9)	(54,38)	(99,11)	(-5,6)	(107,8)	(-75,54)	(0,13)	(44,6)	
L1D -53>	(45,6)	(28,2)	(64,7)	(-6,5)	(53,45)	(43,6)	(0,12)	(42,54)	(62,37)	(51,5)	(21,2)	(-77,14)	(189,3)	(1,2)	(166,3)	(-76,88)	
L1D -52>	(64,64)	(-27,4)	(60,1)	(-7,87)	(-144,2)	(5,20)	(61,6)	(62,52)	(0,6)	(51,8)	(42,2)	(1,3)	(12,23)	(50,33)	(41,70)	(-9,6)	
L1D -51>	(57,2)	(30,30)	(11,3)	(-35,6)	(41,2)	(28,8)	(-34,6)	(38,3)	(0,9)	(53,8)	(-8,75)	(39,25)	(-1,44)	(-41,3)	(36,19)	(49,29)	
L1D -50>	(64,67)	(51,5)	(31,36)	(35,115)	(29,50)	(7,11)	(95,4)	(-9,93)	(40,17)	(-1,11)	(27,32)	(48,11)	(0,24)	(39,26)	(38,2)	(5,10)	
L1D -49>	(162,1)	(289,1)	(-1,3)	(64,5)	(30,5)	(-296,1)	(0,2)	(-2,1)	(47,11)	(2,8)	(39,11)	(18,0)	(40,0)	(1,0)	(153,0)	(-10,127)	
L1D -48>	(16,1)	(64,86)	(58,6)	(-37,3)	(53,38)	(39,8)	(112,23)	(62,3)	(-16,2)	(0,49)	(-31,2)	(-39,2)	(1,6)	(380,19)	(-40,4)	(-32,5)	
L1D -47>	(36,15)	(35,15)	(34,66)	(-29,4)	(43,3)	(0,19)	(1,127)	(11,26)	(47,20)	(10,1)	(64,36)	(55,16)	(57,125)	(26,5)	(2,114)	(24,5)	
L1D -46>	(1,71)	(27,17)	(-13,82)	(0,20)	(34,4)	(64,4)	(54,19)	(57,22)	(23,8)	(36,27)	(56,117)	(-33,12)	(37,2)	(2,8)	(-8,3)	(44,29)	
L1D -45>	(-14,17)	(44,7)	(-10,6)	(2,5)	(34,14)	(7,4)	(22,13)	(64,7)	(1,116)	(26,35)	(46,1)	(154,10)	(55,22)	(0,2)	(-292,5)	(62,4)	
L1D -44>	(-44,3)	(-35,8)	(-29,2)	(5,19)	(42,3)	(-8,2)	(145,1)	(33,4)	(-15,101)	(64,5)	(-5,1)	(34,3)	(25,2)	(1,57)	(19,3)	(-3,1)	
L1D -43>	(53,11)	(39,2)	(41,23)	(0,5)	(54,1)	(33,14)	(-9,6)	(20,1)	(64,4)	(-16,68)	(23,27)	(12,1)	(1,41)	(30,7)	(2,6)	(11,4)	
L1D -42>	(62,63)	(53,66)	(2,77)	(34,13)	(28,6)	(23,48)	(64,45)	(24,18)	(19,23)	(-2,1)	(-17,14)	(41,19)	(56,6)	(38,5)	(31,16)	(52,36)	
L1D -41>	(14,1)	(52,53)	(-1,1)	(1,69)	(51,6)	(2,3)	(0,9)	(-18,9)	(208,0)	(22,2)	(50,3)	(64,50)	(30,1)	(-4,1)	(40,82)	(-9,16)	
L1D -40>	(159,7)	(130,3)	(51,3)	(-9,19)	(112,45)	(43,1)	(48,3)	(50,7)	(0,35)	(39,54)	(-5,21)	(64,48)	(-24,2)	(52,108)	(1,56)	(29,16)	
L1D -39>	(12,5)	(49,40)	(-78,5)	(-260,1)	(4,2)	(29,2)	(6,13)	(25,14)	(2,2)	(57,2)	(19,4)	(34,19)	(-20,15)	(38,38)	(64,21)	(1,88)	
L1D -38>	(0,27)	(15,11)	(64,10)	(26,1)	(38,3)	(34,80)	(55,7)	(16,9)	(46,6)	(37,7)	(2,20)	(18,13)	(4,5)	(146,2)	(1,46)	(174,2)	
L1D -37>	(64,9)	(1,48)	(34,70)	(60,3)	(-1,33)	(15,16)	(28,2)	(23,16)	(-22,37)	(36,79)	(-264,4)	(0,6)	(56,4)	(26,19)	(35,8)	(27,14)	
L1D -36>	(36,4)	(7,1)	(1,28)	(29,2)	(26,12)	(-160,2)	(-23,76)	(10,8)	(13,1)	(34,2)	(46,17)	(35,3)	(0,2)	(33,3)	(-4,1)	(14,2)	
L1D -35>	(12,4)	(17,1)	(64,30)	(34,14)	(0,4)	(-264,2)	(24,9)	(1,2)	(6,1)	(-5,70)	(22,1)	(10,7)	(21,56)	(19,2)	(40,1)	(36,2)	
L1D -34>	(72,8)	(10,9)	(44,8)	(-128,1)	(1,2)	(64,8)	(11,10)	(-25,116)	(4,1)	(12,11)	(18,8)	(23,5)	(32,47)	(14,1)	(-41,7)	(24,27)	
L1D -33>	(1,118)	(43,89)	(33,30)	(-8,1)	(23,19)	(64,75)	(55,7)	(41,6)	(10,57)	(0,13)	(31,14)	(34,18)	(11,14)	(32,60)	(22,77)	(-26,68)	
L1D -32>	(22,44)	(9,7)	(1,22)	(112,26)	(-27,115)	(31,17)	(33,20)	(0,24)	(40,6)	(30,14)	(3,1)	(32,19)	(10,14)	(292,17)	(18,5)	(41,50)	
L1D -31>	(1,50)	(11,5)	(20,7)	(27,7)	(7,83)	(0,10)	(9,6)	(-28,68)	(-70,8)	(-1,1)	(30,102)	(59,11)	(64,7)	(32,56)	(31,11)	(4,42)	
L1D -30>	(59,31)	(1,112)	(10,44)	(39,15)	(28,21)	(0,5)	(64,7)	(14,11)	(-71,6)	(2,1)	(30,41)	(-29,36)	(-5,7)	(20,20)	(8,17)	(-70,39)	
L1D -29>	(29,6)	(1,50)	(6,1)	(27,10)	(18,4)	(9,8)	(35,18)	(64,4)	(2,4)	(19,22)	(-70,16)	(36,7)	(-30,85)	(59,16)	(28,4)	(0,28)	
L1D -28>	(1,125)	(-3,1)	(0,20)	(-70,22)	(7,15)	(10,3)	(18,19)	(-4,12)	(33,3)	(12,113)	(5,3)	(59,28)	(15,9)	(28,15)	(-31,26)	(-2,31)	
L1D -27>	(1,49)	(12,43)	(-70,35)	(13,9)	(37,4)	(64,19)	(0,17)	(2,1)	(4,101)	(26,4)	(7,11)	(16,5)	(59,41)	(5,106)	(-2,5)	(10,48)	
L1D -26>	(1,64)	(14,0)	(128,0)	(22,4)	(23,3)	(0,4)	(26,1)	(64,3)	(-181,2)	(-18,0)	(4,5)	(36,0)	(-20,2)	(-8,2)	(10,0)	(50,1)	
L1D -25>	(21,6)	(13,15)	(5,1)	(59,35)	(30,7)	(-19,35)	(22,84)	(23,19)	(1,40)	(31,57)	(-71,5)	(24,31)	(25,15)	(64,7)	(-70,49)	(10,8)	
L1D -24>	(1,5)	(12,89)	(-30,7)	(13,20)	(6,22)	(5,5)	(-4,4)	(-27,2)	(34,6)	(24,21)	(4,13)	(-18,9)	(11,1)	(-8,9)	(-17,4)	(25,5)	
L1D -23>	(-162,4)	(1,81)	(12,3)	(-163,4)	(-70,12)	(59,27)	(35,2)	(24,2)	(3,1)	(-17,5)	(26,5)	(-71,6)	(29,1)	(23,5)	(-41,2)	(30,5)	
L1D -22>	(1,92)	(-25,1)	(64,1)	(-163,5)	(-162,8)	(32,10)	(0,3)	(4,2)	(59,2)	(-22,2)	(30,4)	(8,1)	(-4,7)	(33,2)	(23,1)	(22,8)	
L1D -21>	(15,3)	(1,23)	(-162,1)	(22,21)	(20,4)	(-4,11)	(3,8)	(21,96)	(0,4)	(-10,2)	(13,41)	(5,11)	(7,11)	(2,29)	(4,30)	(6,14)	
L1D -20>	(0,1)	(-162,6)	(24,2)	(-163,5)	(4,2)	(19,12)	(20,7)	(15,79)	(-18,1)	(1,6)	(31,1)	(2,4)	(28,3)	(120,2)	(30,5)	(14,1)	
L1D -19>	(18,23)	(25,16)	(-6,1)	(2,87)	(5,20)	(1,113)	(23,15)	(-163,7)	(151,13)	(154,8)	(153,5)	(152,4)	(19,7)	(14,3)	(0,6)	(21,34)	
L1D -18>	(9,23)	(4,52)	(1,26)	(26,1)	(11,50)	(10,17)	(12,58)	(20,59)	(6,86)	(-7,15)	(0,27)	(172,2)	(28,16)	(17,38)	(18,106)	(19,8)	
L1D -17>	(64,12)	(-8,26)	(28,32)	(7,42)	(17,94)	(18,51)	(6,115)	(-7,13)	(-1,87)	(4,29)	(0,66)	(23,5)	(5,10)	(1,27)	(-47,15)	(-9,1)	
L1D -16>	(-10,18)	(1,17)	(-70,7)	(0,26)	(-5,1)	(16,55)	(20,34)	(-126,2)	(17,4)	(6,14)	(5,110)	(-2,38)	(13,3)	(8,62)	(59,9)	(10,28)	
L1D -15>	(10,9)	(0,108)	(64,1)	(1,10)	(-12,5)	(59,20)	(22,61)	(13,6)	(-70,42)	(-6,39)	(-18,8)	(157,11)	(-10,15)	(15,17)	(156,8)	(3,11)	
L1D -14>	(2,23)	(14,97)	(10,48)	(-250,11)	(0,119)	(7,5)	(-1,12)	(1,80)	(-12,40)	(-139,7)	(23,34)	(9,15)	(6,27)	(-2,10)	(59,1)	(15,23)	
L1D -13>	(0,78)	(-18,1)	(13,60)	(-2,22)	(9,4)	(10,23)	(-70,9)	(-1,9)	(59,10)	(1,15)	(5,94)	(12,7)	(6,15)	(14,14)	(-13,10)	(-10,12)	
L1D -12>	(-2,91)	(2,52)	(15,15)	(1,121)	(12,39)	(-32,1)	(14,13)	(-8,44)	(13,18)	(23,75)	(25,5)	(26,24)	(6,27)	(11,18)	(0,107)	(7,8)	
L1D -11>	(10,14)	(19,16)	(-72,2)	(2,63)	(5,1)	(1,69)	(-2,14)	(0,29)	(3,10)	(11,14)	(4,2)	(6,11)	(-8,7)	(22,2)	(-1,7)	(-40,27)	
L1D -10>	(8,53)	(20,19)	(-70,56)	(59,31)	(2,123)	(1,76)	(11,16)	(-48,8)	(9,61)	(-122,1)	(0,33)	(23,14)	(22,18)	(-1,24)	(-4,17)	(10,42)	
L1D -9>	(2,34)	(0,19)	(-72,7)	(9,19)	(18,22)	(-55,3)	(6,14)	(1,41)	(5,10)	(-2,2)	(10,108)	(-80,11)	(-10,10)	(4,29)	(8,25)	(14,6)	
L1D -8>	(1,83)	(10,71)	(6,55)	(-4,3)	(0,30)	(7,20)	(-22,3)	(8,23)	(2,85)	(20,23)	(-70,5)	(14,1)	(-6,19)	(9,28)	(11,24)	(-47,16)	
L1D -7>	(0,42)	(-7,47)	(-39,27)	(3,18)	(-8,51)	(-52,1)	(-1,24)	(-5,11)	(10,20)	(22,3)	(5,25)	(7,76)	(-79,7)	(1,58)	(-10,10)	(2,18)	
L1D -6>	(1,82)	(2,64)	(12,15)	(22,63)	(10,23)	(5,53)	(4,16)	(-3,1)	(-8,12)	(6,32)	(-1,31)	(-4,7)	(-10,11)	(16,14)	(8,9)	(7,39)	
L1D -5>	(1,96)	(-5,22)	(-4,1)	(20,38)	(4,57)	(-10,41)	(2,8)	(8,29)	(5,102)	(0,19)	(25,28)	(6,20)	(173,7)	(-2,30)	(7,23)	(14,11)	
L1D -4>	(-5,47)	(7,15)	(-3,15)	(1,74)	(21,1)	(-1,18)	(-2,21)	(0,57)	(-22,24)	(5,21)	(15,9)	(-11,39)	(6,43)	(4,103)	(2,24)	(8,41)	
L1D -3>	(-15,62)	(3,114)	(1,106)	(-5,10)	(-1,48)	(24,20)	(-12,43)	(-64,39)	(-14,1)	(4,44)	(9,19)	(12,7)	(0,65)	(5,49)	(2,28)	(7,33)	
L1D -2>	(-10,22)	(4,111)	(1,50)	(-413,6)	(3,46)	(-405,8)	(-11,15)	(-5,22)	(9,13)	(-1,65)	(0,31)	(-6,90)	(2,69)	(10,30)	(-4,1)	(-397,51)	
L1D -1>	(1,78)	(2,45)	(-5,6)	(-382,4)	(0,18)	(-4,1)	(-2,7)	(-6,13)	(-1,22)	(-33,5)	(4,11)	(-7,25)	(130,8)	(3,40)	(-22,9)	(18,6)	
L1D 0>	(1,32)	(-165,1)	(0,117)	(-92,1)	(-110,1)	(-8,1)	(24,3)	(-114,1)	(-1,3)	(4,7)	(-100,1)	(-103,4)	(14,2)	(25,5)	(3,3)	(5,4)	
L1D 1>	(1,122)	(21,2)	(6,3)	(-164,1)	(-4,2)	(-15,2)	(-6,1)	(22,2)	(-11,2)	(0,5)	(398,2)	(-8,2)	(3,8)	(-1,6)	(2,8)	(-2,1)	
L1D 2>	(20,3)	(12,1)	(-1,11)	(8,16)	(1,69)	(10,5)	(-2,10)	(26,6)	(3,6)	(2,17)	(18,24)	(19,2)	(6,16)	(0,11)	(4,5)	(-8,8)	
L1D 3>	(4,51)	(6,35)	(-3,77)	(0,19)	(2,21)	(5,17)	(-1,17)	(-2,9)	(-25,12)	(-4,28)	(3,14)	(23,16)	(1,90)	(-26,18)	(-97,1)	(-5,5)	
L1D 4>	(-5,61)	(1,62)	(-10,74)	(4,26)	(-2,32)	(9,16)	(-1,28)	(2,62)	(5,11)	(-3,36)	(0,32)	(6,17)	(46,1)	(-4,83)	(3,29)	(17,15)	
L1D 5>	(18,21)	(-3,1)	(-5,68)	(-1,35)	(0,21)	(1,17)	(5,30)	(-13,5)	(-6,17)	(-4,38)	(14,9)	(-8,20)	(20,4)	(6,7)	(7,24)	(2,30)	
L1D 6>	(-7,51)	(-1,92)	(6,47)	(-16,27)	(2,45)	(144,1)	(-2,23)	(-3,67)	(-6,33)	(-12,9)	(-8,44)	(-5,18)	(-13,98)	(1,59)	(-9,33)	(13,3)	
L1D 7>	(134,13)	(1,30)	(0,17)	(148,1)	(-7,73)	(-3,19)	(-12,34)	(-4,16)	(-5,27)	(6,22)	(-8,19)	(-2,20)	(2,31)	(-6,17)	(-10,4)	(-1,46)	
L1D 8>	(-10,53)	(-14,1)	(1,36)	(-15,20)	(8,24)	(-12,4)	(-27,36)	(-6,22)	(-8,64)	(-3,27)	(9,14)	(-11,24)	(-4,22)	(2,26)	(-1,53)	(-16,15)	
L1D 9>	(1,38)	(0,75)	(-24,33)	(-9,84)	(-6,22)	(13,1)	(-4,6)	(-14,24)	(-62,24)	(119,4)	(-7,30)	(-31,43)	(-8,110)	(-10,20)	(5,30)	(2,33)	
L1D 10>	(7,21)	(12,16)	(-8,51)	(-37,1)	(6,98)	(3,4)	(9,8)	(-3,35)	(10,33)	(-9,34)	(-1,50)	(-24,22)	(-2,44)	(-6,11)	(-4,35)	(-5,19)	
L1D 11>	(-3,15)	(-5,54)	(0,20)	(15,1)	(-10,23)	(-1,9)	(-6,6)	(-4,20)	(-9,65)	(-133,20)	(-8,36)	(-15,17)	(-11,98)	(-14,17)	(-35,45)	(3,47)	
L1D 12>	(-7,46)	(0,34)	(-18,30)	(250,4)	(-15,27)	(-3,13)	(-12,10)	(-2,119)	(6,24)	(-4,1)	(5,9)	(-11,6)	(-8,95)	(-5,13)	(-9,12)	(-27,5)	
L1D 13>	(1,12)	(-37,8)	(-433,1)	(-2,53)	(-6,40)	(-17,2)	(-19,30)	(-8,39)	(-12,18)	(-49,1)	(-4,65)	(-13,20)	(-25,8)	(-14,3)	(-3,15)	(0,6)	
L1D 14>	(0,23)	(-8,22)	(-10,7)	(-13,18)	(-51,7)	(-14,51)	(-11,74)	(-19,19)	(-12,14)	(7,41)	(11,9)	(-50,1)	(-4,17)	(-7,24)	(-2,8)	(-3,8)	
L1D 15>	(-17,12)	(0,8)	(-18,3)	(6,3)	(-29,1)	(-6,16)	(2,7)	(448,2)	(120,18)	(-3,6)	(-19,9)	(-15,11)	(-26,104)	(1,27)	(-4,6)	(-11,3)	
L1D 16>	(-2,9)	(-182,44)	(134,15)	(-7,77)	(-16,67)	(-6,20)	(-1,12)	(-24,18)	(112,60)	(43,2)	(0,21)	(-8,11)	(416,3)	(-12,15)	(-17,1)	(-20,6)	
L1D 17>	(-23,19)	(-28,37)	(-22,13)	(-12,19)	(-19,17)	(-26,6)	(-10,16)	(0,16)	(-21,12)	(1,110)	(-16,4)	(-17,4)	(-27,23)	(10,1)	(-8,11)	(-1,6)	
L1D 18>	(-12,21)	(1,78)	(-27,1)	(-56,9)	(-18,13)	(-29,9)	(-13,9)	(-5,2)	(-24,4)	(15,21)	(-51,12)	(-9,2)	(0,6)	(-55,8)	(-8,10)	(-10,9)	
L1D 19>	(-44,57)	(-10,18)	(0,8)	(-25,103)	(-24,1)	(-1,27)	(-20,102)	(-17,17)	(-49,3)	(-23,18)	(-3,85)	(-11,26)	(-63,8)	(-30,38)	(4,44)	(-19,25)	
L1D 20>	(0,11)	(-27,31)	(-19,51)	(-1,1)	(6,62)	(-16,58)	(-20,41)	(-31,19)	(-9,22)	(-11,11)	(-47,11)	(1,8)	(-3,50)	(-10,74)	(-25,6)	(-21,84)	
L1D 21>	(-21,9)	(-39,30)	(-36,9)	(-27,8)	(-61,66)	(-20,37)	(-25,24)	(-16,52)	(0,15)	(8,78)	(-23,30)	(2,16)	(-15,27)	(-174,1)	(6,58)	(1,60)	
L1D 22>	(-13,1)	(-20,1)	(-1,7)	(-11,7)	(-19,23)	(1,5)	(8,17)	(-23,3)	(-54,1)	(3,9)	(-8,32)	(0,6)	(-24,77)	(-12,20)	(-16,1)	(-28,15)	
L1D 23>	(-1,61)	(2,23)	(1,84)	(-8,17)	(0,12)	(3,124)	(-13,18)	(-3,12)	(13,1)	(-19,13)	(-17,5)	(-24,7)	(-11,10)	(-22,12)	(-2,7)	(-23,41)	
L1D 24>	(-12,33)	(-11,54)	(-43,5)	(-19,18)	(-4,1)	(-24,47)	(0,88)	(-56,61)	(-52,15)	(1,68)	(-30,30)	(-46,14)	(-57,22)	(-2,11)	(-27,14)	(-8,55)	
L1D 25>	(-19,116)	(-3,25)	(1,16)	(-1,33)	(-28,17)	(-7,32)	(0,13)	(-25,33)	(-2,45)	(-35,35)	(-39,1)	(-12,122)	(56,66)	(-133,36)	(-26,23)	(2,69)	
L1D 26>	(-25,87)	(-56,7)	(-6,4)	(-8,24)	(-3,97)	(-9,1)	(-19,3)	(-1,16)	(2,35)	(0,29)	(1,101)	(-26,23)	(-12,18)	(3,4)	(-7,38)	(-4,18)	
L1D 27>	(8,22)	(-3,17)	(0,15)	(-12,5)	(-4,5)	(-16,112)	(-8,7)	(-133,4)	(-27,3)	(-28,18)	(28,1)	(-9,4)	(2,3)	(-2,1)	(-1,8)	(-5,6)	
L1D 28>	(8,6)	(2,35)	(0,19)	(-24,31)	(-7,103)	(14,9)	(-30,1)	(-1,13)	(-11,5)	(-3,14)	(-25,13)	(-6,6)	(-28,69)	(-12,14)	(1,22)	(-9,13)	
L1D 29>	(-25,72)	(-10,6)	(-12,11)	(10,1)	(0,19)	(-26,9)	(-11,13)	(-8,10)	(5,12)	(-30,9)	(-7,6)	(-1,6)	(-29,32)	(-9,7)	(-3,30)	(6,90)	
L1D 30>	(-30,11)	(-24,8)	(29,9)	(-9,84)	(-1,8)	(13,60)	(-31,21)	(27,8)	(0,3)	(16,1)	(1,7)	(-297,5)	(-2,11)	(-8,8)	(-11,15)	(-5,8)	
L1D 31>	(8,17)	(13,8)	(-24,6)	(-14,6)	(-9,6)	(-27,4)	(11,1)	(-44,1)	(261,1)	(-8,2)	(-22,6)	(-1,77)	(-12,1)	(-26,4)	(-31,3)	(-11,1)	
L1D 32>	(8,109)	(-23,21)	(0,17)	(122,3)	(-21,9)	(-11,7)	(-374,1)	(-24,96)	(-22,16)	(-91,9)	(-8,40)	(-32,109)	(-1,37)	(-9,19)	(-10,4)	(1,56)	
L1D 33>	(32,1)	(9,10)	(-1,14)	(-24,14)	(-12,12)	(-23,8)	(10,8)	(-407,5)	(-3,85)	(0,16)	(-8,25)	(-22,9)	(-4,8)	(-15,6)	(-33,74)	(-9,6)	
L1D 34>	(16,1)	(-32,82)	(-22,11)	(1,39)	(-34,50)	(-3,4)	(-9,17)	(-1,20)	(-24,22)	(-10,57)	(-23,28)	(-25,4)	(-21,6)	(-12,16)	(-26,4)	(-20,10)	
L1D 35>	(0,3)	(-12,23)	(3,3)	(-1,17)	(2,2)	(8,1)	(1,7)	(-14,13)	(5,2)	(-35,10)	(-6,10)	(-5,6)	(-24,31)	(-2,5)	(-8,68)	(-4,5)	
L1D 36>	(32,1)	(-1,66)	(-5,2)	(-36,27)	(-33,2)	(3,11)	(-8,106)	(-7,2)	(-10,2)	(67,1)	(6,3)	(8,7)	(1,1)	(-15,8)	(-12,5)	(-3,2)	
L1D 37>	(-1,23)	(-13,29)	(-9,31)	(-37,65)	(-36,1)	(3,15)	(-4,15)	(6,9)	(-6,11)	(-7,51)	(-5,15)	(0,21)	(-43,4)	(-24,43)	(1,49)	(-8,68)	
L1D 38>	(2,26)	(-38,21)	(-1,84)	(1,58)	(-8,96)	(-9,19)	(-24,56)	(-7,10)	(-26,1)	(-5,5)	(-4,21)	(-11,12)	(-21,18)	(0,7)	(3,5)	(-10,15)	
L1D 39>	(100,2)	(-8,112)	(-14,11)	(-9,7)	(9,1)	(-12,1)	(-1,34)	(-2,9)	(-39,1)	(-10,22)	(-24,2)	(-7,4)	(-49,3)	(-4,35)	(-35,2)	(12,4)	
L1D 40>	(-40,17)	(0,6)	(1,3)	(-1,38)	(-4,6)	(-44,1)	(-14,4)	(-9,18)	(130,1)	(-39,4)	(-13,4)	(2,3)	(-10,5)	(-8,89)	(74,2)	(8,4)	
L1D 41>	(-3,4)	(-5,1)	(12,1)	(5,101)	(0,40)	(-1,4)	(4,1)	(-8,11)	(-24,34)	(8,2)	(-41,3)	(-4,11)	(-11,55)	(-10,6)	(251,1)	(-14,1)	
L1D 42>	(-8,38)	(44,1)	(-14,27)	(-6,10)	(10,3)	(-11,104)	(-12,17)	(-7,13)	(8,10)	(-24,117)	(-15,6)	(-42,6)	(-1,8)	(-3,10)	(0,76)	(-10,9)	
L1D 43>	(-8,11)	(-7,14)	(8,79)	(-11,8)	(-4,63)	(-10,63)	(-15,9)	(-1,25)	(107,1)	(3,5)	(-3,16)	(-43,125)	(161,34)	(-24,12)	(1,23)	(-46,12)	
L1D 44>	(0,5)	(-4,5)	(2,3)	(-9,8)	(-24,9)	(-14,16)	(6,1)	(-10,8)	(-1,22)	(1,7)	(-44,22)	(-6,20)	(-8,74)	(-5,3)	(-12,4)	(8,10)	
L1D 45>	(-5,107)	(-27,13)	(-6,16)	(8,19)	(-10,27)	(-21,17)	(4,23)	(-15,21)	(-3,4)	(-8,23)	(159,4)	(-12,8)	(-1,18)	(1,98)	(-4,6)	(0,10)	
L1D 46>	(5,7)	(-8,2)	(-46,13)	(-6,3)	(-68,6)	(-59,1)	(-7,97)	(-23,2)	(-45,4)	(-14,15)	(-15,4)	(1,2)	(-12,3)	(-22,1)	(-39,4)	(8,3)	
L1D 47>	(-7,16)	(-5,65)	(8,7)	(22,1)	(-15,6)	(0,6)	(-2,28)	(-4,8)	(-8,14)	(64,5)	(-24,89)	(-12,6)	(-3,12)	(-22,5)	(-47,10)	(-1,48)	
L1D 48>	(-5,119)	(-8,12)	(-6,37)	(-4,22)	(8,33)	(-24,47)	(-36,4)	(-12,13)	(-14,14)	(-315,5)	(-15,9)	(-2,18)	(64,65)	(-345,1)	(-48,35)	(0,25)	
L1D 49>	(5,36)	(4,5)	(-10,10)	(-64,80)	(-7,15)	(-9,10)	(-1,29)	(251,10)	(-49,102)	(-2,5)	(-8,95)	(1,39)	(-24,5)	(-12,56)	(64,63)	(-5,2)	
L1D 50>	(-1,32)	(-2,15)	(-17,1)	(7,5)	(8,13)	(-8,112)	(-7,10)	(-31,5)	(-15,29)	(-50,31)	(4,8)	(-6,12)	(1,22)	(-24,15)	(9,37)	(-12,84)	
L1D 51>	(-1,23)	(-11,52)	(2,8)	(7,11)	(10,7)	(-35,11)	(-2,16)	(-43,10)	(-12,18)	(-8,24)	(-24,57)	(-17,25)	(8,1)	(-15,16)	(9,11)	(-51,15)	
L1D 52>	(-12,114)	(-11,1)	(-13,1)	(24,2)	(32,1)	(-29,0)	(-8,2)	(-52,44)	(10,3)	(8,28)	(76,0)	(128,3)	(-7,0)	(-1,0)	(-46,0)	(-3,1)	
L1D 53>	(-24,3)	(-53,93)	(1,23)	(-68,2)	(7,45)	(0,4)	(-14,1)	(-4,4)	(-59,5)	(-19,1)	(-8,14)	(-3,2)	(-5,60)	(151,2)	(-64,18)	(155,2)	
L1D 54>	(1,6)	(-22,12)	(102,2)	(-8,121)	(-15,34)	(-1,28)	(-3,3)	(-2,2)	(-12,7)	(-54,23)	(-24,40)	(-20,10)	(16,2)	(-16,2)	(-64,2)	(-49,1)	
L1D 55>	(-24,27)	(1,19)	(-7,10)	(-12,1)	(-40,4)	(64,4)	(-8,78)	(-55,38)	(-43,3)	(-17,4)	(0,30)	(-13,5)	(-44,2)	(7,1)	(-1,9)	(-46,2)	
L1D 56>	(-22,5)	(-398,14)	(-294,5)	(24,2)	(5,2)	(21,5)	(64,22)	(-64,30)	(4,5)	(61,8)	(-56,106)	(0,7)	(53,29)	(56,18)	(-301,2)	(1,1)	
L1D 57>	(-57,90)	(-7,2)	(52,7)	(-1,26)	(-26,5)	(-24,20)	(-55,2)	(1,1)	(-34,5)	(0,1)	(151,1)	(60,3)	(-8,13)	(-18,14)	(-10,10)	(-9,2)	
L1D 58>	(-2,25)	(-95,2)	(-58,2)	(-5,10)	(-15,5)	(113,1)	(-11,0)	(-21,123)	(8,1)	(-4,22)	(-16,17)	(-420,1)	(0,9)	(-10,3)	(-3,1)	(24,0)	
L1D 59>	(-29,49)	(-41,12)	(0,64)	(-44,1)	(-40,6)	(-37,31)	(-34,107)	(-46,77)	(-43,52)	(-52,21)	(-33,14)	(-50,40)	(-32,82)	(-36,59)	(-57,27)	(128,93)	
L1D 60>	(8,25)	(9,14)	(1,18)	(-4,30)	(-58,32)	(-137,24)	(80,4)	(-402,27)	(-26,1)	(-403,58)	(-10,103)	(57,22)	(-9,32)	(20,3)	(131,17)	(6,3)	
L1D 61>	(0,25)	(-59,1)	(-7,7)	(-403,101)	(-1,10)	(-5,11)	(4,7)	(-286,26)	(-8,17)	(-153,19)	(-306,11)	(-10,3)	(-143,3)	(-311,5)	(-28,8)	(-290,3)	
L1D 62>	(0,70)	(-10,6)	(1,20)	(24,0)	(14,0)	(-2,0)	(-3,0)	(-90,0)	(-11,0)	(82,0)	(-132,15)	(8,0)	(-9,0)	(-12,0)	(-48,0)	(-1,0)	
L1D 63>	(-1,13)	(6,25)	(1,44)	(-64,14)	(138,5)	(24,1)	(-133,91)	(12,6)	(-194,12)	(64,9)	(-7,10)	(-146,4)	(0,24)	(-63,17)	(13,13)	(-10,16)	
L1D 64>	(-16,21)	(-176,84)	(-24,18)	(0,16)	(-7,5)	(-65,24)	(-56,60)	(-78,26)	(-67,1)	(-64,121)	(-9,3)	(19,9)	(26,31)	(23,11)	(10,4)	(-8,4)	
L1D 65>	(-7,36)	(64,115)	(115,4)	(-65,4)	(-64,11)	(-9,14)	(-55,1)	(0,24)	(61,2)	(-75,2)	(-49,3)	(-87,3)	(1,4)	(-1,8)	(-12,2)	(-139,2)	
L1D 66>	(-7,95)	(-9,23)	(24,3)	(64,64)	(-8,8)	(16,7)	(-12,6)	(-64,71)	(7,3)	(1,1)	(-39,2)	(-81,4)	(4,17)	(0,3)	(-35,5)	(-13,3)	
L1D 67>	(-9,63)	(-7,107)	(64,22)	(-3,76)	(-16,5)	(0,29)	(-68,1)	(-51,8)	(1,16)	(4,47)	(-4,5)	(-75,5)	(-64,11)	(-57,4)	(197,15)	(255,17)	
L1D 68>	(16,26)	(-9,46)	(-18,5)	(1,49)	(-64,87)	(5,64)	(4,6)	(-4,77)	(-8,14)	(7,16)	(-255,6)	(-1,1)	(-40,4)	(0,18)	(-52,4)	(9,23)	
L1D 69>	(-6,38)	(-9,24)	(-18,15)	(-5,16)	(-7,8)	(-39,1)	(0,15)	(-3,20)	(-4,18)	(3,77)	(-64,9)	(-24,2)	(-143,2)	(-17,5)	(1,3)	(4,38)	
L1D 70>	(2,7)	(-6,53)	(-35,10)	(0,11)	(-59,11)	(1,4)	(-10,1)	(-7,9)	(-5,7)	(-52,4)	(-36,6)	(-70,5)	(-37,3)	(-66,2)	(-1,2)	(8,9)	
L1D 71>	(-7,11)	(20,7)	(4,5)	(-95,26)	(-4,6)	(-64,13)	(-57,4)	(-71,6)	(1,27)	(-15,2)	(3,2)	(7,67)	(-24,5)	(-155,4)	(0,6)	(-148,6)	
L1D 72>	(192,5)	(-9,3)	(-8,33)	(0,8)	(-5,2)	(4,6)	(-75,3)	(-7,2)	(-38,3)	(-95,17)	(-59,1)	(-6,4)	(-69,3)	(-64,100)	(-35,1)	(-72,19)	
L1D 73>	(-1,8)	(20,3)	(-89,115)	(-64,13)	(0,12)	(7,3)	(-90,13)	(-11,2)	(-7,64)	(-95,4)	(-81,3)	(-73,2)	(54,2)	(-9,117)	(-10,4)	(-4,4)	
L1D 74>	(54,1)	(8,12)	(-11,22)	(-82,13)	(-10,13)	(-83,32)	(-9,126)	(20,10)	(-7,37)	(-84,11)	(-8,27)	(-65,12)	(0,43)	(4,20)	(1,8)	(-81,94)	
L1D 75>	(-3,39)	(7,10)	(-9,65)	(1,3)	(-8,7)	(-70,3)	(52,9)	(-72,10)	(-65,5)	(-81,82)	(0,3)	(81,8)	(8,8)	(-64,24)	(4,9)	(-4,3)	
L1D 76>	(0,37)	(8,1)	(-62,4)	(1,22)	(-64,72)	(-4,7)	(-60,10)	(-148,2)	(-66,11)	(-9,9)	(-68,19)	(4,2)	(-81,3)	(-76,6)	(52,12)	(5,6)	
L1D 77>	(2,12)	(-14,6)	(0,19)	(-9,20)	(-18,3)	(52,1)	(1,23)	(-78,5)	(-86,2)	(-69,4)	(-81,5)	(-64,4)	(3,4)	(50,5)	(-75,2)	(8,14)	
L1D 78>	(1,35)	(0,23)	(-9,31)	(-189,3)	(-60,21)	(-261,32)	(21,6)	(-68,9)	(50,3)	(-14,7)	(-81,4)	(313,5)	(-128,1)	(255,3)	(60,2)	(183,2)	
L1D 79>	(0,33)	(-15,113)	(-8,12)	(-71,3)	(-62,9)	(-262,10)	(1,15)	(8,4)	(-64,12)	(-80,2)	(-72,9)	(-24,6)	(-37,2)	(-65,38)	(-10,2)	(12,11)	
L1D 80>	(0,3)	(-4,5)	(8,7)	(-80,6)	(-138,2)	(1,2)	(-64,12)	(-181,5)	(-16,96)	(48,2)	(20,4)	(-162,1)	(-7,1)	(-71,5)	(-89,5)	(47,26)	
L1D 81>	(9,3)	(-18,6)	(61,67)	(-9,15)	(-72,4)	(46,4)	(1,13)	(56,37)	(-75,4)	(-64,14)	(52,7)	(0,13)	(53,6)	(-81,13)	(47,37)	(20,1)	
L1D 82>	(52,3)	(1,48)	(9,4)	(-82,7)	(-64,29)	(51,6)	(-73,8)	(93,25)	(-4,20)	(3,4)	(46,4)	(4,17)	(20,6)	(0,4)	(60,24)	(10,9)	
L1D 83>	(-83,3)	(-4,34)	(-60,7)	(-64,9)	(0,54)	(21,6)	(-88,4)	(1,24)	(44,3)	(-11,4)	(8,16)	(-69,4)	(-345,7)	(-188,4)	(18,2)	(-20,4)	
L1D 84>	(58,10)	(129,3)	(20,3)	(0,113)	(-8,13)	(44,4)	(-62,5)	(-12,4)	(7,15)	(-9,9)	(3,2)	(-64,14)	(-2,2)	(-7,8)	(4,11)	(-71,4)	
L1D 85>	(57,39)	(0,28)	(113,17)	(42,51)	(-64,16)	(-164,8)	(-10,3)	(-79,3)	(2,3)	(-4,5)	(-48,1)	(8,4)	(1,23)	(-37,3)	(-3,2)	(-42,2)	
L1D 86>	(-85,8)	(0,8)	(1,29)	(89,3)	(-64,22)	(-4,1)	(21,3)	(-60,3)	(-6,2)	(-12,3)	(41,18)	(-76,3)	(-20,2)	(42,25)	(-59,3)	(-9,6)	
[...]
L1D 473>	(-91,1)	(-114,1)	(12,2)	(11,1)	(-109,1)	(1,0)	(1,0)	(1,0)	(1,0)	(1,0)	(1,0)	(1,0)	(1,0)	(1,0)	(1,0)	(1,0)	
L1D 474>	(-107,2)	(-117,1)	(1,0)	(1,0)	(1,0)	(1,0)	(1,0)	(1,0)	(1,0)	(1,0)	(1,0)	(1,0)	(1,0)	(1,0)	(1,0)	(1,0)	
L1D 475>	(-110,1)	(-180,3)	(1,0)	(1,0)	(1,0)	(1,0)	(1,0)	(1,0)	(1,0)	(1,0)	(1,0)	(1,0)	(1,0)	(1,0)	(1,0)	(1,0)	
L1D 476>	(-200,18)	(-398,1)	(-85,1)	(-5,1)	(1,0)	(1,0)	(1,0)	(1,0)	(1,0)	(1,0)	(1,0)	(1,0)	(1,0)	(1,0)	(1,0)	(1,0)	
L1D 477>	(-160,1)	(1,0)	(1,0)	(1,0)	(1,0)	(1,0)	(1,0)	(1,0)	(1,0)	(1,0)	(1,0)	(1,0)	(1,0)	(1,0)	(1,0)	(1,0)	
L1D 478>	(1,0)	(1,0)	(1,0)	(1,0)	(1,0)	(1,0)	(1,0)	(1,0)	(1,0)	(1,0)	(1,0)	(1,0)	(1,0)	(1,0)	(1,0)	(1,0)	
L1D 479>	(-218,1)	(-216,1)	(1,0)	(1,0)	(1,0)	(1,0)	(1,0)	(1,0)	(1,0)	(1,0)	(1,0)	(1,0)	(1,0)	(1,0)	(1,0)	(1,0)	
L1D 480>	(-224,1)	(-32,5)	(-344,1)	(-359,1)	(-480,18)	(-409,28)	(-472,2)	(1,0)	(1,0)	(1,0)	(1,0)	(1,0)	(1,0)	(1,0)	(1,0)	(1,0)	
L1D 481>	(1,0)	(1,0)	(1,0)	(1,0)	(1,0)	(1,0)	(1,0)	(1,0)	(1,0)	(1,0)	(1,0)	(1,0)	(1,0)	(1,0)	(1,0)	(1,0)	
L1D 482>	(-193,1)	(-117,1)	(-119,2)	(1,0)	(1,0)	(1,0)	(1,0)	(1,0)	(1,0)	(1,0)	(1,0)	(1,0)	(1,0)	(1,0)	(1,0)	(1,0)	
L1D 483>	(1,0)	(1,0)	(1,0)	(1,0)	(1,0)	(1,0)	(1,0)	(1,0)	(1,0)	(1,0)	(1,0)	(1,0)	(1,0)	(1,0)	(1,0)	(1,0)	
L1D 484>	(-192,1)	(1,0)	(1,0)	(1,0)	(1,0)	(1,0)	(1,0)	(1,0)	(1,0)	(1,0)	(1,0)	(1,0)	(1,0)	(1,0)	(1,0)	(1,0)	
L1D 485>	(11,2)	(-218,1)	(-192,1)	(1,0)	(1,0)	(1,0)	(1,0)	(1,0)	(1,0)	(1,0)	(1,0)	(1,0)	(1,0)	(1,0)	(1,0)	(1,0)	
L1D 486>	(1,0)	(1,0)	(1,0)	(1,0)	(1,0)	(1,0)	(1,0)	(1,0)	(1,0)	(1,0)	(1,0)	(1,0)	(1,0)	(1,0)	(1,0)	(1,0)	
L1D 487>	(1,0)	(1,0)	(1,0)	(1,0)	(1,0)	(1,0)	(1,0)	(1,0)	(1,0)	(1,0)	(1,0)	(1,0)	(1,0)	(1,0)	(1,0)	(1,0)	
L1D 488>	(-16,1)	(-128,1)	(1,0)	(1,0)	(1,0)	(1,0)	(1,0)	(1,0)	(1,0)	(1,0)	(1,0)	(1,0)	(1,0)	(1,0)	(1,0)	(1,0)	
L1D 489>	(1,0)	(1,0)	(1,0)	(1,0)	(1,0)	(1,0)	(1,0)	(1,0)	(1,0)	(1,0)	(1,0)	(1,0)	(1,0)	(1,0)	(1,0)	(1,0)	
L1D 490>	(-88,1)	(1,0)	(1,0)	(1,0)	(1,0)	(1,0)	(1,0)	(1,0)	(1,0)	(1,0)	(1,0)	(1,0)	(1,0)	(1,0)	(1,0)	(1,0)	
L1D 491>	(1,0)	(1,0)	(1,0)	(1,0)	(1,0)	(1,0)	(1,0)	(1,0)	(1,0)	(1,0)	(1,0)	(1,0)	(1,0)	(1,0)	(1,0)	(1,0)	
L1D 492>	(1,0)	(1,0)	(1,0)	(1,0)	(1,0)	(1,0)	(1,0)	(1,0)	(1,0)	(1,0)	(1,0)	(1,0)	(1,0)	(1,0)	(1,0)	(1,0)	
L1D 493>	(11,1)	(1,0)	(1,0)	(1,0)	(1,0)	(1,0)	(1,0)	(1,0)	(1,0)	(1,0)	(1,0)	(1,0)	(1,0)	(1,0)	(1,0)	(1,0)	
L1D 494>	(-218,1)	(1,0)	(1,0)	(1,0)	(1,0)	(1,0)	(1,0)	(1,0)	(1,0)	(1,0)	(1,0)	(1,0)	(1,0)	(1,0)	(1,0)	(1,0)	
L1D 495>	(1,0)	(1,0)	(1,0)	(1,0)	(1,0)	(1,0)	(1,0)	(1,0)	(1,0)	(1,0)	(1,0)	(1,0)	(1,0)	(1,0)	(1,0)	(1,0)	
L1D 496>	(-148,1)	(1,0)	(1,0)	(1,0)	(1,0)	(1,0)	(1,0)	(1,0)	(1,0)	(1,0)	(1,0)	(1,0)	(1,0)	(1,0)	(1,0)	(1,0)	
L1D 497>	(1,0)	(1,0)	(1,0)	(1,0)	(1,0)	(1,0)	(1,0)	(1,0)	(1,0)	(1,0)	(1,0)	(1,0)	(1,0)	(1,0)	(1,0)	(1,0)	
L1D 498>	(-182,1)	(1,0)	(1,0)	(1,0)	(1,0)	(1,0)	(1,0)	(1,0)	(1,0)	(1,0)	(1,0)	(1,0)	(1,0)	(1,0)	(1,0)	(1,0)	
L1D 499>	(-405,1)	(11,1)	(1,0)	(1,0)	(1,0)	(1,0)	(1,0)	(1,0)	(1,0)	(1,0)	(1,0)	(1,0)	(1,0)	(1,0)	(1,0)	(1,0)	
L1D 500>	(1,0)	(1,0)	(1,0)	(1,0)	(1,0)	(1,0)	(1,0)	(1,0)	(1,0)	(1,0)	(1,0)	(1,0)	(1,0)	(1,0)	(1,0)	(1,0)	
L1D 501>	(1,0)	(1,0)	(1,0)	(1,0)	(1,0)	(1,0)	(1,0)	(1,0)	(1,0)	(1,0)	(1,0)	(1,0)	(1,0)	(1,0)	(1,0)	(1,0)	
L1D 502>	(1,0)	(1,0)	(1,0)	(1,0)	(1,0)	(1,0)	(1,0)	(1,0)	(1,0)	(1,0)	(1,0)	(1,0)	(1,0)	(1,0)	(1,0)	(1,0)	
L1D 503>	(1,0)	(1,0)	(1,0)	(1,0)	(1,0)	(1,0)	(1,0)	(1,0)	(1,0)	(1,0)	(1,0)	(1,0)	(1,0)	(1,0)	(1,0)	(1,0)	
L1D 504>	(-375,6)	(1,0)	(1,0)	(1,0)	(1,0)	(1,0)	(1,0)	(1,0)	(1,0)	(1,0)	(1,0)	(1,0)	(1,0)	(1,0)	(1,0)	(1,0)	
L1D 505>	(1,0)	(1,0)	(1,0)	(1,0)	(1,0)	(1,0)	(1,0)	(1,0)	(1,0)	(1,0)	(1,0)	(1,0)	(1,0)	(1,0)	(1,0)	(1,0)	
L1D 506>	(1,0)	(1,0)	(1,0)	(1,0)	(1,0)	(1,0)	(1,0)	(1,0)	(1,0)	(1,0)	(1,0)	(1,0)	(1,0)	(1,0)	(1,0)	(1,0)	
L1D 507>	(1,0)	(1,0)	(1,0)	(1,0)	(1,0)	(1,0)	(1,0)	(1,0)	(1,0)	(1,0)	(1,0)	(1,0)	(1,0)	(1,0)	(1,0)	(1,0)	
L1D 508>	(1,0)	(1,0)	(1,0)	(1,0)	(1,0)	(1,0)	(1,0)	(1,0)	(1,0)	(1,0)	(1,0)	(1,0)	(1,0)	(1,0)	(1,0)	(1,0)	
L1D 509>	(1,0)	(1,0)	(1,0)	(1,0)	(1,0)	(1,0)	(1,0)	(1,0)	(1,0)	(1,0)	(1,0)	(1,0)	(1,0)	(1,0)	(1,0)	(1,0)	
L1D 510>	(1,0)	(1,0)	(1,0)	(1,0)	(1,0)	(1,0)	(1,0)	(1,0)	(1,0)	(1,0)	(1,0)	(1,0)	(1,0)	(1,0)	(1,0)	(1,0)	
L1D 511>	(1,0)	(1,0)	(1,0)	(1,0)	(1,0)	(1,0)	(1,0)	(1,0)	(1,0)	(1,0)	(1,0)	(1,0)	(1,0)	(1,0)	(1,0)	(1,0)	

L2C -64>	(-7,1)	(1,168)	(4,1)	(5,1)	(-4,6)	(33,1)	(-1,2)	(15,1)	(2,2)	(-3,3)	(-5,22)	(3,3)	(20,1)	(-6,5)	(8,1)	(0,1)	
L2C -63>	(1,0)	(1,0)	(1,0)	(1,0)	(1,0)	(1,0)	(1,0)	(1,0)	(1,0)	(1,0)	(1,0)	(1,0)	(1,0)	(1,0)	(1,0)	(1,0)	
L2C -62>	(1,0)	(1,0)	(1,0)	(1,0)	(1,0)	(1,0)	(1,0)	(1,0)	(1,0)	(1,0)	(1,0)	(1,0)	(1,0)	(1,0)	(1,0)	(1,0)	
L2C -61>	(41,1)	(1,0)	(1,0)	(1,0)	(1,0)	(1,0)	(1,0)	(1,0)	(1,0)	(1,0)	(1,0)	(1,0)	(1,0)	(1,0)	(1,0)	(1,0)	
L2C -60>	(27,1)	(19,1)	(55,1)	(1,0)	(1,0)	(1,0)	(1,0)	(1,0)	(1,0)	(1,0)	(1,0)	(1,0)	(1,0)	(1,0)	(1,0)	(1,0)	
L2C -59>	(60,1)	(1,0)	(1,0)	(1,0)	(1,0)	(1,0)	(1,0)	(1,0)	(1,0)	(1,0)	(1,0)	(1,0)	(1,0)	(1,0)	(1,0)	(1,0)	
L2C -58>	(-1,1)	(47,1)	(35,1)	(40,1)	(1,0)	(1,0)	(1,0)	(1,0)	(1,0)	(1,0)	(1,0)	(1,0)	(1,0)	(1,0)	(1,0)	(1,0)	
L2C -57>	(1,4)	(4,1)	(46,2)	(3,1)	(18,1)	(33,1)	(1,0)	(1,0)	(1,0)	(1,0)	(1,0)	(1,0)	(1,0)	(1,0)	(1,0)	(1,0)	
L2C -56>	(1,2)	(7,1)	(2,1)	(40,1)	(44,1)	(14,1)	(16,1)	(10,1)	(39,1)	(50,1)	(1,0)	(1,0)	(1,0)	(1,0)	(1,0)	(1,0)	
L2C -55>	(8,1)	(2,1)	(23,1)	(28,1)	(1,1)	(46,1)	(-2,1)	(37,1)	(16,1)	(9,1)	(-1,2)	(1,0)	(1,0)	(1,0)	(1,0)	(1,0)	
L2C -54>	(-7,1)	(1,4)	(43,1)	(23,1)	(29,1)	(-5,1)	(48,1)	(52,1)	(9,1)	(46,1)	(47,1)	(8,1)	(6,1)	(2,1)	(1,0)	(1,0)	
L2C -53>	(1,6)	(30,1)	(18,1)	(2,1)	(3,2)	(1,0)	(1,0)	(1,0)	(1,0)	(1,0)	(1,0)	(1,0)	(1,0)	(1,0)	(1,0)	(1,0)	
L2C -52>	(30,2)	(27,1)	(3,2)	(9,2)	(-1,2)	(36,1)	(39,2)	(10,1)	(1,8)	(41,1)	(4,1)	(11,1)	(42,1)	(-6,1)	(1,0)	(1,0)	
L2C -51>	(32,1)	(45,2)	(16,1)	(4,2)	(50,1)	(1,5)	(31,2)	(21,1)	(51,1)	(39,1)	(11,1)	(3,1)	(2,2)	(10,1)	(40,1)	(27,1)	
L2C -50>	(-2,2)	(1,8)	(14,1)	(17,1)	(43,2)	(55,1)	(4,4)	(37,1)	(35,1)	(13,1)	(16,2)	(42,1)	(45,2)	(3,1)	(52,1)	(9,1)	
L2C -49>	(0,2)	(1,6)	(7,1)	(51,1)	(6,1)	(2,1)	(-2,1)	(15,1)	(32,1)	(42,1)	(31,1)	(-9,1)	(50,1)	(34,1)	(1,0)	(1,0)	
L2C -48>	(32,1)	(1,7)	(-8,2)	(48,1)	(-5,1)	(-3,1)	(41,2)	(30,1)	(-1,2)	(2,1)	(51,1)	(6,1)	(1,0)	(1,0)	(1,0)	(1,0)	
L2C -47>	(-3,1)	(1,16)	(54,1)	(4,1)	(49,2)	(15,1)	(2,1)	(25,1)	(-1,1)	(29,1)	(18,1)	(33,1)	(22,1)	(6,1)	(-2,1)	(44,1)	
L2C -46>	(31,1)	(14,1)	(1,5)	(0,2)	(50,2)	(3,2)	(-9,1)	(17,1)	(54,1)	(-1,2)	(9,1)	(22,1)	(-8,1)	(5,1)	(51,1)	(18,1)	
L2C -45>	(33,1)	(0,3)	(-3,1)	(21,1)	(-2,2)	(2,2)	(6,2)	(47,1)	(7,1)	(1,3)	(27,1)	(26,1)	(35,1)	(5,1)	(37,2)	(-12,1)	
L2C -44>	(1,4)	(26,1)	(36,1)	(33,2)	(23,2)	(20,1)	(3,1)	(48,1)	(45,4)	(4,1)	(-1,1)	(41,1)	(47,1)	(10,1)	(-8,1)	(-4,1)	
L2C -43>	(1,7)	(-8,2)	(37,1)	(26,1)	(32,1)	(-1,2)	(19,1)	(6,1)	(25,1)	(-7,1)	(-4,1)	(-11,1)	(46,1)	(12,1)	(28,1)	(34,1)	
L2C -42>	(-11,2)	(1,12)	(41,4)	(21,1)	(40,1)	(-3,1)	(8,1)	(2,1)	(6,1)	(-1,1)	(3,3)	(44,2)	(46,1)	(26,1)	(39,1)	(36,1)	
L2C -41>	(1,9)	(39,2)	(47,1)	(0,1)	(31,1)	(-14,1)	(40,1)	(52,1)	(37,1)	(33,1)	(42,1)	(43,2)	(12,1)	(-1,2)	(8,2)	(36,1)	
L2C -40>	(40,1)	(6,1)	(46,1)	(1,11)	(25,1)	(47,1)	(33,2)	(23,1)	(2,1)	(31,1)	(3,2)	(9,1)	(39,1)	(5,1)	(-19,1)	(28,1)	
L2C -39>	(-2,2)	(53,1)	(1,17)	(32,2)	(39,2)	(18,1)	(28,2)	(55,1)	(12,2)	(8,1)	(3,2)	(11,1)	(-1,3)	(44,2)	(38,1)	(59,1)	
L2C -38>	(-1,4)	(-6,1)	(14,3)	(46,1)	(48,1)	(-4,4)	(2,2)	(33,3)	(25,1)	(18,1)	(27,1)	(38,1)	(1,11)	(5,1)	(15,1)	(35,1)	
L2C -37>	(1,20)	(-2,1)	(49,1)	(2,4)	(16,1)	(23,1)	(-16,1)	(52,1)	(-4,1)	(4,3)	(17,1)	(-1,1)	(21,1)	(47,2)	(22,1)	(27,1)	
L2C -36>	(2,3)	(38,2)	(4,2)	(18,1)	(16,1)	(1,23)	(35,4)	(45,3)	(27,1)	(33,2)	(3,2)	(23,2)	(36,4)	(6,1)	(14,2)	(51,1)	
L2C -35>	(25,2)	(54,1)	(32,3)	(33,2)	(-14,1)	(1,13)	(8,4)	(3,1)	(22,2)	(28,1)	(-1,4)	(40,1)	(-4,3)	(49,1)	(36,2)	(-3,1)	
L2C -34>	(-5,2)	(11,2)	(10,1)	(-14,1)	(-8,1)	(1,23)	(2,1)	(3,1)	(24,2)	(4,2)	(-9,2)	(26,1)	(-23,1)	(39,1)	(-7,1)	(48,1)	
L2C -33>	(-1,3)	(55,2)	(1,15)	(6,1)	(54,1)	(43,1)	(-2,2)	(22,2)	(34,3)	(28,3)	(-3,1)	(33,2)	(8,2)	(15,2)	(40,3)	(24,2)	
L2C -32>	(13,2)	(31,2)	(51,2)	(1,10)	(22,1)	(41,2)	(2,2)	(52,1)	(21,1)	(27,1)	(23,1)	(57,1)	(-1,2)	(15,3)	(3,2)	(0,2)	
L2C -31>	(-6,3)	(-8,2)	(5,2)	(2,4)	(31,6)	(13,1)	(25,3)	(1,8)	(-1,5)	(34,2)	(41,1)	(11,2)	(46,1)	(-21,1)	(35,1)	(37,2)	
L2C -30>	(35,2)	(1,18)	(31,1)	(7,1)	(12,1)	(14,1)	(37,2)	(2,1)	(-1,1)	(23,1)	(24,3)	(-5,1)	(11,2)	(27,2)	(-15,2)	(56,1)	
L2C -29>	(1,15)	(-9,2)	(32,4)	(-7,1)	(-4,3)	(23,2)	(19,2)	(-1,7)	(-14,1)	(8,3)	(-18,1)	(26,1)	(25,4)	(-5,1)	(30,5)	(31,3)	
L2C -28>	(9,3)	(1,14)	(-20,1)	(12,3)	(-4,2)	(30,1)	(32,1)	(-8,3)	(29,2)	(-12,1)	(35,1)	(41,1)	(-1,4)	(28,2)	(4,3)	(8,1)	
L2C -27>	(27,7)	(25,2)	(12,1)	(1,14)	(5,1)	(-12,1)	(16,2)	(-19,2)	(6,3)	(19,2)	(3,2)	(18,3)	(8,3)	(11,2)	(14,1)	(28,2)	
L2C -26>	(1,13)	(8,1)	(-11,1)	(-31,1)	(-18,2)	(7,2)	(6,3)	(24,2)	(18,3)	(2,4)	(28,1)	(48,1)	(-4,2)	(-16,1)	(19,1)	(3,1)	
L2C -25>	(2,3)	(22,2)	(26,3)	(1,13)	(32,1)	(27,2)	(10,6)	(25,1)	(0,5)	(11,3)	(15,1)	(8,4)	(-1,7)	(3,2)	(-7,1)	(-5,1)	
L2C -24>	(1,30)	(17,4)	(30,2)	(-4,3)	(-5,2)	(6,2)	(27,2)	(-15,2)	(21,2)	(-3,1)	(55,1)	(-23,3)	(5,4)	(-13,1)	(41,1)	(35,1)	
L2C -23>	(12,1)	(1,24)	(14,3)	(2,7)	(21,3)	(15,1)	(-32,1)	(19,1)	(5,3)	(34,1)	(30,1)	(-7,2)	(-23,1)	(24,3)	(13,1)	(18,1)	
L2C -22>	(-1,7)	(34,1)	(14,2)	(1,18)	(-3,2)	(31,1)	(-11,2)	(2,6)	(4,5)	(20,4)	(3,4)	(-22,3)	(12,2)	(15,2)	(0,4)	(18,2)	
L2C -21>	(19,5)	(1,35)	(15,5)	(25,3)	(0,50)	(-10,2)	(-17,1)	(21,3)	(-8,3)	(3,2)	(-32,1)	(5,2)	(10,1)	(2,8)	(4,3)	(31,1)	
L2C -20>	(1,27)	(2,7)	(3,3)	(5,1)	(-5,1)	(28,4)	(-8,3)	(26,1)	(23,3)	(46,1)	(-14,1)	(10,1)	(9,2)	(-3,1)	(16,3)	(6,1)	
L2C -19>	(1,64)	(9,2)	(0,103)	(-1,2)	(43,2)	(-7,2)	(3,8)	(-8,3)	(24,1)	(8,1)	(19,12)	(13,6)	(2,10)	(21,1)	(11,2)	(-20,4)	
L2C -18>	(-8,2)	(4,3)	(0,6)	(2,9)	(1,35)	(-1,2)	(15,2)	(-34,1)	(5,3)	(14,2)	(19,8)	(-15,1)	(6,4)	(8,3)	(-30,2)	(10,3)	
L2C -17>	(0,11)	(1,37)	(-1,9)	(10,4)	(4,1)	(-26,3)	(-18,1)	(19,3)	(-5,2)	(-16,2)	(2,6)	(21,1)	(11,5)	(12,2)	(17,4)	(8,2)	
L2C -16>	(17,10)	(1,36)	(16,3)	(6,3)	(-2,6)	(24,2)	(2,7)	(-1,2)	(8,3)	(32,1)	(-23,1)	(-41,1)	(-32,2)	(9,1)	(14,2)	(10,6)	
L2C -15>	(1,33)	(10,3)	(19,2)	(6,4)	(2,7)	(17,6)	(0,4)	(3,4)	(8,5)	(16,3)	(-12,3)	(-2,2)	(9,1)	(-24,1)	(-1,11)	(4,4)	
L2C -14>	(-24,4)	(-11,3)	(8,4)	(1,40)	(-1,14)	(16,2)	(-20,1)	(11,4)	(15,8)	(-2,4)	(-4,2)	(-38,2)	(21,1)	(2,7)	(5,4)	(20,1)	
L2C -13>	(14,8)	(-1,10)	(1,41)	(2,6)	(0,30)	(5,3)	(8,7)	(9,1)	(10,2)	(-8,3)	(12,5)	(-2,2)	(21,4)	(-4,1)	(31,1)	(-44,1)	
L2C -12>	(1,48)	(3,7)	(-1,9)	(21,3)	(11,2)	(-3,2)	(7,4)	(6,4)	(15,3)	(5,6)	(-13,2)	(13,3)	(-2,1)	(8,15)	(-36,2)	(2,14)	
L2C -11>	(1,41)	(0,7)	(34,1)	(3,6)	(-2,2)	(-13,1)	(5,3)	(8,16)	(18,1)	(-8,2)	(35,1)	(-12,3)	(-4,4)	(14,1)	(17,1)	(2,8)	
L2C -10>	(-1,7)	(25,6)	(1,49)	(2,9)	(-8,3)	(3,6)	(7,2)	(0,4)	(9,2)	(19,2)	(17,2)	(32,3)	(21,3)	(10,9)	(6,4)	(8,24)	
L2C -9>	(7,4)	(2,15)	(-1,10)	(1,48)	(9,69)	(16,3)	(3,3)	(0,2)	(11,15)	(8,19)	(-3,1)	(28,3)	(47,1)	(21,1)	(27,2)	(10,11)	
L2C -8>	(16,1)	(1,40)	(9,21)	(27,26)	(18,4)	(7,4)	(2,8)	(-5,9)	(25,16)	(5,4)	(0,7)	(-1,13)	(8,219)	(17,3)	(-4,5)	(-10,3)	
L2C -7>	(1,51)	(-10,5)	(2,19)	(-1,9)	(-4,3)	(8,17)	(-11,2)	(-18,2)	(-3,4)	(9,2)	(-32,1)	(12,2)	(-2,6)	(0,3)	(-39,1)	(-25,1)	
L2C -6>	(7,15)	(19,4)	(-10,7)	(3,6)	(1,140)	(4,9)	(2,23)	(-3,2)	(-22,3)	(-2,8)	(-1,5)	(8,14)	(0,8)	(31,3)	(5,6)	(32,1)	
L2C -5>	(30,1)	(1,165)	(3,7)	(2,11)	(-23,3)	(4,8)	(-11,3)	(0,28)	(-1,6)	(-8,8)	(8,13)	(-5,6)	(-21,2)	(-24,4)	(25,2)	(6,9)	
L2C -4>	(-2,9)	(1,95)	(-1,19)	(16,4)	(4,11)	(5,10)	(15,1)	(20,2)	(9,5)	(-3,6)	(0,17)	(-8,6)	(-11,2)	(2,32)	(-14,2)	(-5,5)	
L2C -3>	(-21,6)	(-17,2)	(9,6)	(2,26)	(3,7)	(1,97)	(5,5)	(27,3)	(20,3)	(-8,6)	(-1,10)	(-14,4)	(-5,1)	(45,1)	(4,11)	(-40,1)	
L2C -2>	(1,99)	(3,32)	(8,11)	(0,128)	(2,93)	(-5,9)	(-19,12)	(-6,6)	(-1,14)	(-8,13)	(-9,7)	(-17,4)	(4,5)	(-2,8)	(-13,4)	(-32,1)	
L2C -1>	(29,1)	(3,26)	(2,100)	(-8,16)	(16,15)	(13,5)	(-17,7)	(-3,11)	(1,127)	(15,15)	(0,55)	(-9,10)	(5,13)	(-16,4)	(-1,30)	(9,10)	
L2C 0>	(1,3)	(-7,0)	(33,0)	(0,136)	(-36,0)	(-31,0)	(-22,0)	(21,0)	(-2,0)	(-9,8)	(19,0)	(-1,0)	(-8,0)	(2,2)	(-33,0)	(5,0)	
L2C 1>	(-6,11)	(1,171)	(2,12)	(-2,9)	(-4,4)	(8,2)	(-5,8)	(3,3)	(14,2)	(-36,1)	(-3,3)	(12,2)	(-1,8)	(-35,2)	(-7,1)	(11,3)	
L2C 2>	(-2,111)	(1,223)	(2,67)	(-1,35)	(0,25)	(-11,12)	(-3,17)	(3,16)	(-12,12)	(-13,4)	(-9,12)	(-16,7)	(6,1)	(-4,27)	(-6,6)	(7,8)	
L2C 3>	(0,2)	(7,7)	(1,126)	(-1,30)	(-11,6)	(-2,15)	(-6,16)	(8,19)	(16,3)	(-5,4)	(11,9)	(13,3)	(-12,6)	(10,5)	(3,6)	(5,3)	
L2C 4>	(1,84)	(-5,12)	(-19,6)	(-15,5)	(2,37)	(-11,5)	(-27,4)	(-2,11)	(-25,4)	(15,4)	(8,1)	(-6,2)	(13,3)	(0,5)	(25,4)	(-13,5)	
L2C 5>	(1,50)	(-31,3)	(27,2)	(-1,11)	(-24,2)	(6,6)	(-4,19)	(-5,9)	(-20,2)	(2,11)	(-10,3)	(-6,8)	(-21,3)	(5,2)	(-29,2)	(-2,9)	
L2C 6>	(1,38)	(4,17)	(21,3)	(-4,8)	(-7,5)	(9,3)	(-2,9)	(7,3)	(-12,3)	(-6,1)	(-5,9)	(-41,1)	(-16,2)	(-1,8)	(2,20)	(26,3)	
L2C 7>	(-2,3)	(1,48)	(7,4)	(4,8)	(-1,11)	(-51,3)	(-16,4)	(-7,1)	(5,6)	(-4,5)	(20,1)	(-9,4)	(12,1)	(-12,2)	(6,2)	(0,3)	
L2C 8>	(0,192)	(2,36)	(-8,54)	(-9,22)	(-6,11)	(1,54)	(-7,22)	(-1,15)	(-12,15)	(8,7)	(-4,8)	(4,12)	(-3,11)	(-2,14)	(24,1)	(11,4)	
L2C 9>	(1,50)	(0,57)	(2,18)	(-8,13)	(-2,3)	(15,3)	(-42,1)	(-9,2)	(-16,3)	(4,4)	(3,6)	(-10,5)	(-1,19)	(16,5)	(5,4)	(7,2)	
L2C 10>	(1,38)	(0,9)	(15,3)	(-15,7)	(-9,4)	(-3,7)	(17,3)	(8,2)	(2,5)	(-5,5)	(-10,14)	(-1,13)	(3,3)	(-6,1)	(12,1)	(-16,4)	
L2C 11>	(22,1)	(-3,10)	(1,74)	(3,4)	(-12,5)	(-6,3)	(24,2)	(-1,10)	(2,4)	(-16,5)	(-19,2)	(-4,5)	(-9,5)	(8,2)	(-50,2)	(-10,2)	
L2C 12>	(1,46)	(-1,8)	(2,15)	(-20,7)	(-5,1)	(-18,3)	(-31,2)	(3,6)	(-34,1)	(-38,2)	(-19,1)	(5,4)	(-27,2)	(-23,2)	(24,1)	(-44,1)	
L2C 13>	(1,30)	(3,6)	(-18,2)	(-33,1)	(-42,2)	(2,6)	(-5,4)	(-10,3)	(-11,1)	(15,2)	(-13,23)	(5,1)	(-22,2)	(10,3)	(-23,3)	(-32,1)	
L2C 14>	(1,16)	(-13,7)	(20,2)	(-1,7)	(8,2)	(-12,3)	(5,5)	(-9,2)	(-18,2)	(-8,1)	(-15,5)	(-4,1)	(2,8)	(3,4)	(-14,5)	(33,1)	
L2C 15>	(1,49)	(-15,9)	(-14,14)	(-4,2)	(-24,1)	(-1,13)	(-26,3)	(3,6)	(7,1)	(-30,3)	(17,2)	(2,11)	(-37,2)	(5,2)	(15,1)	(-13,7)	
L2C 16>	(-17,12)	(-14,7)	(2,12)	(1,36)	(-15,12)	(-11,6)	(-1,14)	(-2,7)	(-16,9)	(-5,3)	(-19,4)	(-20,1)	(37,1)	(-9,2)	(-34,1)	(-12,1)	
L2C 17>	(1,23)	(-2,7)	(2,25)	(8,2)	(-18,8)	(-15,2)	(-3,2)	(3,2)	(-50,1)	(-8,3)	(-17,10)	(22,2)	(-10,2)	(-52,2)	(17,1)	(-1,3)	
L2C 18>	(3,4)	(2,4)	(-2,6)	(1,31)	(-19,2)	(-17,5)	(-1,3)	(8,3)	(-8,3)	(-25,2)	(-24,2)	(-16,3)	(-18,3)	(-9,5)	(-51,1)	(11,1)	
L2C 19>	(-11,2)	(2,11)	(1,21)	(-18,5)	(-16,2)	(-29,2)	(-21,1)	(11,1)	(-7,4)	(-19,62)	(-20,1)	(-36,2)	(-51,1)	(12,2)	(7,2)	(8,2)	
L2C 20>	(-14,3)	(1,20)	(-20,1)	(-3,3)	(-2,4)	(-22,1)	(-11,2)	(14,2)	(-13,1)	(27,2)	(-55,1)	(4,1)	(-19,8)	(-12,1)	(-18,3)	(-43,2)	
L2C 21>	(1,23)	(4,8)	(-18,1)	(23,2)	(-54,2)	(-21,40)	(-8,4)	(-2,6)	(14,2)	(-9,3)	(-26,3)	(-6,3)	(-22,6)	(-19,1)	(-32,1)	(-35,2)	
L2C 22>	(-21,1)	(-1,2)	(-47,1)	(4,2)	(27,1)	(-24,1)	(-10,1)	(-9,2)	(1,12)	(7,1)	(12,1)	(-4,1)	(-30,1)	(-14,3)	(5,1)	(-25,1)	
L2C 23>	(3,1)	(-16,1)	(-22,2)	(2,6)	(-34,2)	(1,20)	(-15,2)	(-26,1)	(-39,1)	(-29,1)	(-13,1)	(27,1)	(-27,1)	(-12,1)	(-18,4)	(-42,2)	
L2C 24>	(12,2)	(1,13)	(6,2)	(-3,1)	(-19,2)	(-16,3)	(-52,1)	(5,3)	(-22,1)	(-47,1)	(20,1)	(-2,2)	(-34,1)	(-24,6)	(-15,1)	(-26,1)	
L2C 25>	(-25,6)	(4,3)	(-23,1)	(19,1)	(1,14)	(6,2)	(-24,2)	(7,2)	(-15,3)	(-35,2)	(-30,2)	(21,2)	(2,24)	(8,2)	(-17,6)	(-8,2)	
L2C 26>	(-20,1)	(-22,1)	(-46,2)	(-31,5)	(1,17)	(6,2)	(20,2)	(24,1)	(11,2)	(2,5)	(-28,2)	(-19,1)	(10,1)	(-16,3)	(-9,2)	(-1,2)	
L2C 27>	(-27,9)	(1,18)	(7,2)	(2,2)	(-21,2)	(6,3)	(5,1)	(-47,1)	(-24,2)	(-8,3)	(-37,2)	(-28,1)	(27,1)	(-9,3)	(-19,28)	(-5,2)	
L2C 28>	(-27,3)	(2,3)	(-36,1)	(1,12)	(25,1)	(-16,3)	(-12,3)	(3,2)	(-11,1)	(-1,4)	(9,1)	(-4,1)	(-8,2)	(-5,2)	(-43,1)	(-35,1)	
L2C 29>	(1,17)	(-30,3)	(-17,1)	(-41,2)	(-6,2)	(-2,3)	(-5,1)	(-50,1)	(-8,2)	(-26,1)	(-34,1)	(6,1)	(-12,1)	(21,1)	(-1,2)	(4,1)	
L2C 30>	(-11,2)	(13,1)	(-40,3)	(1,19)	(-8,3)	(24,1)	(-21,3)	(4,4)	(2,4)	(6,1)	(-26,1)	(-3,1)	(-18,1)	(3,4)	(-39,1)	(-7,1)	
L2C 31>	(1,15)	(15,1)	(2,5)	(8,1)	(-9,2)	(-4,1)	(4,3)	(-45,1)	(-55,1)	(20,2)	(-5,1)	(-23,3)	(-30,2)	(-32,2)	(-56,1)	(-26,1)	
L2C 32>	(-33,4)	(5,2)	(-5,2)	(3,2)	(-17,1)	(1,23)	(-4,1)	(4,2)	(-21,3)	(12,1)	(7,1)	(-12,1)	(-6,4)	(-50,1)	(0,1)	(-9,1)	
L2C 33>	(1,19)	(8,2)	(-33,1)	(0,2)	(16,1)	(14,2)	(-49,1)	(-18,2)	(-32,3)	(-20,1)	(-3,4)	(-23,1)	(-25,1)	(-29,4)	(-50,1)	(-15,2)	
L2C 34>	(14,1)	(2,4)	(-1,2)	(-15,3)	(0,2)	(-31,1)	(10,1)	(-3,1)	(-38,3)	(-33,3)	(-8,3)	(-30,1)	(1,12)	(-18,1)	(-10,1)	(-46,1)	
L2C 35>	(1,15)	(8,2)	(22,2)	(10,1)	(-20,3)	(-12,1)	(-16,2)	(-40,1)	(-1,1)	(-9,3)	(-51,1)	(-2,3)	(-48,1)	(2,2)	(4,1)	(-28,1)	
L2C 36>	(1,13)	(-3,1)	(-54,1)	(-35,3)	(20,1)	(-2,1)	(-46,1)	(7,1)	(-16,2)	(-39,2)	(-38,2)	(-8,3)	(-17,1)	(4,1)	(-32,1)	(-37,1)	
L2C 37>	(-40,1)	(1,15)	(-23,1)	(3,2)	(-7,2)	(-46,1)	(-9,1)	(-34,2)	(-24,1)	(-17,1)	(-3,1)	(-42,1)	(-6,1)	(5,3)	(-4,1)	(-8,1)	
L2C 38>	(-47,1)	(10,2)	(-43,2)	(1,4)	(2,4)	(-54,1)	(5,1)	(-33,1)	(-1,2)	(-12,1)	(-2,2)	(11,1)	(-10,1)	(-30,1)	(4,1)	(-36,1)	
L2C 39>	(-33,1)	(-47,3)	(13,1)	(-45,1)	(-52,1)	(-1,4)	(-5,1)	(2,2)	(-15,1)	(-27,1)	(-43,1)	(1,4)	(3,2)	(-54,1)	(-42,2)	(-38,5)	
L2C 40>	(1,7)	(-41,1)	(5,1)	(-9,2)	(-29,1)	(-20,1)	(-43,2)	(-28,1)	(-13,2)	(3,1)	(-1,1)	(15,1)	(-8,2)	(-7,1)	(12,2)	(10,1)	
L2C 41>	(2,5)	(-44,1)	(-40,2)	(-4,1)	(-18,1)	(-11,1)	(-38,2)	(16,3)	(1,8)	(-55,1)	(-20,1)	(-1,1)	(-37,2)	(-48,1)	(-9,1)	(-2,4)	
L2C 42>	(-8,1)	(8,2)	(1,6)	(-31,1)	(-19,1)	(-7,1)	(-25,1)	(-14,2)	(-13,1)	(-2,1)	(-36,1)	(6,1)	(-1,1)	(-45,1)	(2,1)	(5,1)	
L2C 43>	(-35,1)	(-42,1)	(4,1)	(-9,2)	(-39,1)	(1,6)	(2,3)	(-3,1)	(-2,1)	(-18,1)	(-17,1)	(-24,2)	(-22,1)	(-13,1)	(-26,1)	(-1,3)	
L2C 44>	(11,1)	(-52,1)	(1,6)	(-20,1)	(-56,1)	(-38,1)	(2,2)	(-46,1)	(-50,1)	(-40,1)	(12,1)	(-2,1)	(4,2)	(-1,1)	(-35,1)	(-47,1)	
L2C 45>	(-18,1)	(-45,2)	(9,1)	(-16,1)	(-5,2)	(2,3)	(-6,2)	(-46,1)	(16,2)	(1,6)	(-2,3)	(5,1)	(6,1)	(-8,1)	(0,2)	(-19,1)	
L2C 46>	(-37,2)	(1,6)	(-18,1)	(2,2)	(-6,1)	(-1,3)	(-36,1)	(-32,1)	(-13,1)	(-31,1)	(-17,1)	(-4,1)	(12,1)	(-11,1)	(-3,1)	(-52,1)	
L2C 47>	(-50,1)	(1,6)	(2,1)	(-14,1)	(10,1)	(-35,2)	(-26,1)	(-45,2)	(-56,1)	(-32,1)	(-17,1)	(-20,1)	(-29,1)	(-22,2)	(-6,1)	(-42,1)	
L2C 48>	(2,2)	(-17,1)	(-2,1)	(-3,2)	(-26,1)	(1,6)	(-11,2)	(-53,2)	(8,1)	(3,1)	(-40,2)	(5,1)	(-1,3)	(-16,1)	(-52,1)	(-28,1)	
L2C 49>	(-18,1)	(2,1)	(-42,1)	(-51,1)	(1,3)	(-12,1)	(-34,1)	(-9,1)	(-6,1)	(3,1)	(-17,2)	(-16,1)	(7,1)	(-14,1)	(-32,1)	(-46,1)	
L2C 50>	(1,5)	(-38,1)	(-17,1)	(-19,1)	(-24,1)	(-3,2)	(-31,1)	(-45,2)	(-46,1)	(-33,1)	(-2,2)	(-7,1)	(-43,1)	(-22,1)	(-1,3)	(-44,1)	
L2C 51>	(-3,1)	(-19,1)	(-40,1)	(-47,1)	(1,1)	(-52,1)	(-1,2)	(-16,1)	(-11,1)	(-18,1)	(-49,1)	(-6,1)	(1,0)	(1,0)	(1,0)	(1,0)	
L2C 52>	(-37,1)	(1,5)	(-18,2)	(-51,1)	(-35,1)	(-45,1)	(-2,1)	(2,2)	(-3,1)	(-38,1)	(4,1)	(1,0)	(1,0)	(1,0)	(1,0)	(1,0)	
L2C 53>	(-31,1)	(-23,1)	(-52,1)	(-46,1)	(-14,1)	(1,0)	(1,0)	(1,0)	(1,0)	(1,0)	(1,0)	(1,0)	(1,0)	(1,0)	(1,0)	(1,0)	
L2C 54>	(-53,1)	(-24,1)	(1,2)	(-4,1)	(-10,1)	(-1,1)	(-47,1)	(1,0)	(1,0)	(1,0)	(1,0)	(1,0)	(1,0)	(1,0)	(1,0)	(1,0)	
L2C 55>	(-41,1)	(-35,1)	(-8,1)	(-44,3)	(-51,1)	(-15,2)	(-33,1)	(-18,1)	(-2,1)	(1,2)	(1,0)	(1,0)	(1,0)	(1,0)	(1,0)	(1,0)	
L2C 56>	(-3,1)	(-54,1)	(-50,1)	(1,1)	(-24,1)	(-47,1)	(1,0)	(1,0)	(1,0)	(1,0)	(1,0)	(1,0)	(1,0)	(1,0)	(1,0)	(1,0)	
L2C 57>	(1,1)	(-16,1)	(-22,1)	(1,0)	(1,0)	(1,0)	(1,0)	(1,0)	(1,0)	(1,0)	(1,0)	(1,0)	(1,0)	(1,0)	(1,0)	(1,0)	
L2C 58>	(-26,1)	(-12,1)	(1,0)	(1,0)	(1,0)	(1,0)	(1,0)	(1,0)	(1,0)	(1,0)	(1,0)	(1,0)	(1,0)	(1,0)	(1,0)	(1,0)	
L2C 59>	(-8,1)	(1,1)	(1,0)	(1,0)	(1,0)	(1,0)	(1,0)	(1,0)	(1,0)	(1,0)	(1,0)	(1,0)	(1,0)	(1,0)	(1,0)	(1,0)	
L2C 60>	(-33,1)	(-6,1)	(1,0)	(1,0)	(1,0)	(1,0)	(1,0)	(1,0)	(1,0)	(1,0)	(1,0)	(1,0)	(1,0)	(1,0)	(1,0)	(1,0)	
L2C 61>	(1,0)	(1,0)	(1,0)	(1,0)	(1,0)	(1,0)	(1,0)	(1,0)	(1,0)	(1,0)	(1,0)	(1,0)	(1,0)	(1,0)	(1,0)	(1,0)	
L2C 62>	(1,0)	(1,0)	(1,0)	(1,0)	(1,0)	(1,0)	(1,0)	(1,0)	(1,0)	(1,0)	(1,0)	(1,0)	(1,0)	(1,0)	(1,0)	(1,0)	
L2C 63>	(1,0)	(1,0)	(1,0)	(1,0)	(1,0)	(1,0)	(1,0)	(1,0)	(1,0)	(1,0)	(1,0)	(1,0)	(1,0)	(1,0)	(1,0)	(1,0)	

DRAM Statistics
 CHANNEL 0
 RQ ROW_BUFFER_HIT:      23234  ROW_BUFFER_MISS:       2624
 DBUS_CONGESTED:      21997
 WQ ROW_BUFFER_HIT:          3  ROW_BUFFER_MISS:        228  FULL:          0

 AVG_CONGESTED_CYCLE: 6
