
*** ChampSim Multicore Out-of-Order Simulator ***

Warmup Instructions: 1000000
Simulation Instructions: 10000000
Number of CPUs: 1
LLC sets: 2048
LLC ways: 16
Off-chip DRAM Size: 4096 MB Channels: 1 Width: 64-bit Data Rate: 3200 MT/s

CPU 0 runs /home/virtualcse/Data-Prefetching/ChampSim/dpc3_traces/641.leela_s-334B.champsimtrace.xz
Ultra pref. initializing...
Ultra pref. initialized
Ultra pref. initializing...
Ultra pref. initialized

Warmup complete CPU 0 instructions: 1000002 cycles: 418477 (Simulation time: 0 hr 0 min 2 sec) 

Heartbeat CPU 0 instructions: 10000002 cycles: 10272178 heartbeat IPC: 0.973504 cumulative IPC: 0.913362 (Simulation time: 0 hr 0 min 15 sec) 
Finished CPU 0 instructions: 10000000 cycles: 10950253 cumulative IPC: 0.913221 (Simulation time: 0 hr 0 min 16 sec) 

CPU 0 Branch Prediction Accuracy: 86.1527% MPKI: 16.139 Average ROB Occupancy at Mispredict: 30.7265

ChampSim completed all CPUs

Region of Interest Statistics

CPU 0 cumulative IPC: 0.913221 instructions: 10000000 cycles: 10950253
L1D TOTAL     ACCESS:    6543042  HIT:    6481922  MISS:      61120
L1D LOAD      ACCESS:    1830458  HIT:    1814809  MISS:      15649
L1D RFO       ACCESS:    1178902  HIT:    1171654  MISS:       7248
L1D PREFETCH  ACCESS:    3533682  HIT:    3495459  MISS:      38223
L1D WRITEBACK ACCESS:          0  HIT:          0  MISS:          0
L1D PREFETCH  REQUESTED:   29644829  ISSUED:   27085026  USEFUL:      16566  USELESS:      25817
L1D AVERAGE MISS LATENCY: 18.8766 cycles
L1I TOTAL     ACCESS:     960661  HIT:     957331  MISS:       3330
L1I LOAD      ACCESS:     960661  HIT:     957331  MISS:       3330
L1I RFO       ACCESS:          0  HIT:          0  MISS:          0
L1I PREFETCH  ACCESS:          0  HIT:          0  MISS:          0
L1I WRITEBACK ACCESS:          0  HIT:          0  MISS:          0
L1I PREFETCH  REQUESTED:          0  ISSUED:          0  USEFUL:          0  USELESS:          0
L1I AVERAGE MISS LATENCY: 13.079 cycles
L2C TOTAL     ACCESS:     412971  HIT:     406638  MISS:       6333
L2C LOAD      ACCESS:      18261  HIT:      17904  MISS:        357
L2C RFO       ACCESS:       7239  HIT:       7228  MISS:         11
L2C PREFETCH  ACCESS:     372768  HIT:     366807  MISS:       5961
L2C WRITEBACK ACCESS:      14703  HIT:      14699  MISS:          4
L2C PREFETCH  REQUESTED:     887037  ISSUED:     623042  USEFUL:       1219  USELESS:       3648
L2C AVERAGE MISS LATENCY: 157.841 cycles
LLC TOTAL     ACCESS:       6471  HIT:       2036  MISS:       4435
LLC LOAD      ACCESS:        352  HIT:        108  MISS:        244
LLC RFO       ACCESS:         11  HIT:          1  MISS:         10
LLC PREFETCH  ACCESS:       5966  HIT:       1785  MISS:       4181
LLC WRITEBACK ACCESS:        142  HIT:        142  MISS:          0
LLC PREFETCH  REQUESTED:          0  ISSUED:          0  USEFUL:         42  USELESS:          0
LLC AVERAGE MISS LATENCY: 182.396 cycles
Major fault: 0 Minor fault: 333

L1D -512>	(38,1)	(0,86)	(-128,1)	(4,1)	(1,13)	(3,6)	(-72,1)	(-1,2)	(-8,2)	(2,3)	(9,1)	(-3,0)	(-11,0)	(-60,0)	(-34,0)	(32,0)	
L1D -511>	(1,94)	(1,0)	(1,0)	(1,0)	(1,0)	(1,0)	(1,0)	(1,0)	(1,0)	(1,0)	(1,0)	(1,0)	(1,0)	(1,0)	(1,0)	(1,0)	
L1D -510>	(1,0)	(1,0)	(1,0)	(1,0)	(1,0)	(1,0)	(1,0)	(1,0)	(1,0)	(1,0)	(1,0)	(1,0)	(1,0)	(1,0)	(1,0)	(1,0)	
L1D -509>	(1,0)	(1,0)	(1,0)	(1,0)	(1,0)	(1,0)	(1,0)	(1,0)	(1,0)	(1,0)	(1,0)	(1,0)	(1,0)	(1,0)	(1,0)	(1,0)	
L1D -508>	(1,0)	(1,0)	(1,0)	(1,0)	(1,0)	(1,0)	(1,0)	(1,0)	(1,0)	(1,0)	(1,0)	(1,0)	(1,0)	(1,0)	(1,0)	(1,0)	
L1D -507>	(1,0)	(1,0)	(1,0)	(1,0)	(1,0)	(1,0)	(1,0)	(1,0)	(1,0)	(1,0)	(1,0)	(1,0)	(1,0)	(1,0)	(1,0)	(1,0)	
L1D -506>	(1,0)	(1,0)	(1,0)	(1,0)	(1,0)	(1,0)	(1,0)	(1,0)	(1,0)	(1,0)	(1,0)	(1,0)	(1,0)	(1,0)	(1,0)	(1,0)	
L1D -505>	(1,0)	(1,0)	(1,0)	(1,0)	(1,0)	(1,0)	(1,0)	(1,0)	(1,0)	(1,0)	(1,0)	(1,0)	(1,0)	(1,0)	(1,0)	(1,0)	
L1D -504>	(1,0)	(1,0)	(1,0)	(1,0)	(1,0)	(1,0)	(1,0)	(1,0)	(1,0)	(1,0)	(1,0)	(1,0)	(1,0)	(1,0)	(1,0)	(1,0)	
L1D -503>	(1,0)	(1,0)	(1,0)	(1,0)	(1,0)	(1,0)	(1,0)	(1,0)	(1,0)	(1,0)	(1,0)	(1,0)	(1,0)	(1,0)	(1,0)	(1,0)	
L1D -502>	(1,0)	(1,0)	(1,0)	(1,0)	(1,0)	(1,0)	(1,0)	(1,0)	(1,0)	(1,0)	(1,0)	(1,0)	(1,0)	(1,0)	(1,0)	(1,0)	
L1D -501>	(1,0)	(1,0)	(1,0)	(1,0)	(1,0)	(1,0)	(1,0)	(1,0)	(1,0)	(1,0)	(1,0)	(1,0)	(1,0)	(1,0)	(1,0)	(1,0)	
L1D -500>	(1,0)	(1,0)	(1,0)	(1,0)	(1,0)	(1,0)	(1,0)	(1,0)	(1,0)	(1,0)	(1,0)	(1,0)	(1,0)	(1,0)	(1,0)	(1,0)	
L1D -499>	(1,0)	(1,0)	(1,0)	(1,0)	(1,0)	(1,0)	(1,0)	(1,0)	(1,0)	(1,0)	(1,0)	(1,0)	(1,0)	(1,0)	(1,0)	(1,0)	
L1D -498>	(1,0)	(1,0)	(1,0)	(1,0)	(1,0)	(1,0)	(1,0)	(1,0)	(1,0)	(1,0)	(1,0)	(1,0)	(1,0)	(1,0)	(1,0)	(1,0)	
L1D -497>	(1,0)	(1,0)	(1,0)	(1,0)	(1,0)	(1,0)	(1,0)	(1,0)	(1,0)	(1,0)	(1,0)	(1,0)	(1,0)	(1,0)	(1,0)	(1,0)	
L1D -496>	(1,0)	(1,0)	(1,0)	(1,0)	(1,0)	(1,0)	(1,0)	(1,0)	(1,0)	(1,0)	(1,0)	(1,0)	(1,0)	(1,0)	(1,0)	(1,0)	
L1D -495>	(1,0)	(1,0)	(1,0)	(1,0)	(1,0)	(1,0)	(1,0)	(1,0)	(1,0)	(1,0)	(1,0)	(1,0)	(1,0)	(1,0)	(1,0)	(1,0)	
L1D -494>	(1,0)	(1,0)	(1,0)	(1,0)	(1,0)	(1,0)	(1,0)	(1,0)	(1,0)	(1,0)	(1,0)	(1,0)	(1,0)	(1,0)	(1,0)	(1,0)	
L1D -493>	(1,0)	(1,0)	(1,0)	(1,0)	(1,0)	(1,0)	(1,0)	(1,0)	(1,0)	(1,0)	(1,0)	(1,0)	(1,0)	(1,0)	(1,0)	(1,0)	
L1D -492>	(1,0)	(1,0)	(1,0)	(1,0)	(1,0)	(1,0)	(1,0)	(1,0)	(1,0)	(1,0)	(1,0)	(1,0)	(1,0)	(1,0)	(1,0)	(1,0)	
L1D -491>	(1,0)	(1,0)	(1,0)	(1,0)	(1,0)	(1,0)	(1,0)	(1,0)	(1,0)	(1,0)	(1,0)	(1,0)	(1,0)	(1,0)	(1,0)	(1,0)	
L1D -490>	(1,0)	(1,0)	(1,0)	(1,0)	(1,0)	(1,0)	(1,0)	(1,0)	(1,0)	(1,0)	(1,0)	(1,0)	(1,0)	(1,0)	(1,0)	(1,0)	
L1D -489>	(1,0)	(1,0)	(1,0)	(1,0)	(1,0)	(1,0)	(1,0)	(1,0)	(1,0)	(1,0)	(1,0)	(1,0)	(1,0)	(1,0)	(1,0)	(1,0)	
L1D -488>	(1,0)	(1,0)	(1,0)	(1,0)	(1,0)	(1,0)	(1,0)	(1,0)	(1,0)	(1,0)	(1,0)	(1,0)	(1,0)	(1,0)	(1,0)	(1,0)	
L1D -487>	(1,0)	(1,0)	(1,0)	(1,0)	(1,0)	(1,0)	(1,0)	(1,0)	(1,0)	(1,0)	(1,0)	(1,0)	(1,0)	(1,0)	(1,0)	(1,0)	
L1D -486>	(1,0)	(1,0)	(1,0)	(1,0)	(1,0)	(1,0)	(1,0)	(1,0)	(1,0)	(1,0)	(1,0)	(1,0)	(1,0)	(1,0)	(1,0)	(1,0)	
L1D -485>	(1,0)	(1,0)	(1,0)	(1,0)	(1,0)	(1,0)	(1,0)	(1,0)	(1,0)	(1,0)	(1,0)	(1,0)	(1,0)	(1,0)	(1,0)	(1,0)	
L1D -484>	(1,0)	(1,0)	(1,0)	(1,0)	(1,0)	(1,0)	(1,0)	(1,0)	(1,0)	(1,0)	(1,0)	(1,0)	(1,0)	(1,0)	(1,0)	(1,0)	
L1D -483>	(1,0)	(1,0)	(1,0)	(1,0)	(1,0)	(1,0)	(1,0)	(1,0)	(1,0)	(1,0)	(1,0)	(1,0)	(1,0)	(1,0)	(1,0)	(1,0)	
L1D -482>	(1,0)	(1,0)	(1,0)	(1,0)	(1,0)	(1,0)	(1,0)	(1,0)	(1,0)	(1,0)	(1,0)	(1,0)	(1,0)	(1,0)	(1,0)	(1,0)	
L1D -481>	(1,0)	(1,0)	(1,0)	(1,0)	(1,0)	(1,0)	(1,0)	(1,0)	(1,0)	(1,0)	(1,0)	(1,0)	(1,0)	(1,0)	(1,0)	(1,0)	
L1D -480>	(1,0)	(1,0)	(1,0)	(1,0)	(1,0)	(1,0)	(1,0)	(1,0)	(1,0)	(1,0)	(1,0)	(1,0)	(1,0)	(1,0)	(1,0)	(1,0)	
L1D -479>	(1,0)	(1,0)	(1,0)	(1,0)	(1,0)	(1,0)	(1,0)	(1,0)	(1,0)	(1,0)	(1,0)	(1,0)	(1,0)	(1,0)	(1,0)	(1,0)	
L1D -478>	(1,0)	(1,0)	(1,0)	(1,0)	(1,0)	(1,0)	(1,0)	(1,0)	(1,0)	(1,0)	(1,0)	(1,0)	(1,0)	(1,0)	(1,0)	(1,0)	
L1D -477>	(0,1)	(9,1)	(1,0)	(1,0)	(1,0)	(1,0)	(1,0)	(1,0)	(1,0)	(1,0)	(1,0)	(1,0)	(1,0)	(1,0)	(1,0)	(1,0)	
L1D -476>	(1,1)	(340,1)	(183,1)	(1,0)	(1,0)	(1,0)	(1,0)	(1,0)	(1,0)	(1,0)	(1,0)	(1,0)	(1,0)	(1,0)	(1,0)	(1,0)	
L1D -475>	(0,1)	(1,0)	(1,0)	(1,0)	(1,0)	(1,0)	(1,0)	(1,0)	(1,0)	(1,0)	(1,0)	(1,0)	(1,0)	(1,0)	(1,0)	(1,0)	
L1D -474>	(62,1)	(0,1)	(129,1)	(197,1)	(1,0)	(1,0)	(1,0)	(1,0)	(1,0)	(1,0)	(1,0)	(1,0)	(1,0)	(1,0)	(1,0)	(1,0)	
L1D -473>	(256,1)	(1,0)	(1,0)	(1,0)	(1,0)	(1,0)	(1,0)	(1,0)	(1,0)	(1,0)	(1,0)	(1,0)	(1,0)	(1,0)	(1,0)	(1,0)	
L1D -472>	(128,1)	(1,0)	(1,0)	(1,0)	(1,0)	(1,0)	(1,0)	(1,0)	(1,0)	(1,0)	(1,0)	(1,0)	(1,0)	(1,0)	(1,0)	(1,0)	
L1D -471>	(1,0)	(1,0)	(1,0)	(1,0)	(1,0)	(1,0)	(1,0)	(1,0)	(1,0)	(1,0)	(1,0)	(1,0)	(1,0)	(1,0)	(1,0)	(1,0)	
L1D -470>	(0,2)	(127,1)	(1,0)	(1,0)	(1,0)	(1,0)	(1,0)	(1,0)	(1,0)	(1,0)	(1,0)	(1,0)	(1,0)	(1,0)	(1,0)	(1,0)	
L1D -469>	(1,0)	(1,0)	(1,0)	(1,0)	(1,0)	(1,0)	(1,0)	(1,0)	(1,0)	(1,0)	(1,0)	(1,0)	(1,0)	(1,0)	(1,0)	(1,0)	
L1D -468>	(1,0)	(1,0)	(1,0)	(1,0)	(1,0)	(1,0)	(1,0)	(1,0)	(1,0)	(1,0)	(1,0)	(1,0)	(1,0)	(1,0)	(1,0)	(1,0)	
L1D -467>	(0,1)	(1,0)	(1,0)	(1,0)	(1,0)	(1,0)	(1,0)	(1,0)	(1,0)	(1,0)	(1,0)	(1,0)	(1,0)	(1,0)	(1,0)	(1,0)	
L1D -466>	(3,6)	(1,0)	(1,0)	(1,0)	(1,0)	(1,0)	(1,0)	(1,0)	(1,0)	(1,0)	(1,0)	(1,0)	(1,0)	(1,0)	(1,0)	(1,0)	
L1D -465>	(133,1)	(1,0)	(1,0)	(1,0)	(1,0)	(1,0)	(1,0)	(1,0)	(1,0)	(1,0)	(1,0)	(1,0)	(1,0)	(1,0)	(1,0)	(1,0)	
L1D -464>	(132,1)	(1,0)	(1,0)	(1,0)	(1,0)	(1,0)	(1,0)	(1,0)	(1,0)	(1,0)	(1,0)	(1,0)	(1,0)	(1,0)	(1,0)	(1,0)	
L1D -463>	(131,4)	(1,0)	(1,0)	(1,0)	(1,0)	(1,0)	(1,0)	(1,0)	(1,0)	(1,0)	(1,0)	(1,0)	(1,0)	(1,0)	(1,0)	(1,0)	
L1D -462>	(187,1)	(1,0)	(1,0)	(1,0)	(1,0)	(1,0)	(1,0)	(1,0)	(1,0)	(1,0)	(1,0)	(1,0)	(1,0)	(1,0)	(1,0)	(1,0)	
L1D -461>	(1,0)	(1,0)	(1,0)	(1,0)	(1,0)	(1,0)	(1,0)	(1,0)	(1,0)	(1,0)	(1,0)	(1,0)	(1,0)	(1,0)	(1,0)	(1,0)	
L1D -460>	(0,2)	(125,1)	(1,0)	(1,0)	(1,0)	(1,0)	(1,0)	(1,0)	(1,0)	(1,0)	(1,0)	(1,0)	(1,0)	(1,0)	(1,0)	(1,0)	
L1D -459>	(124,1)	(1,0)	(1,0)	(1,0)	(1,0)	(1,0)	(1,0)	(1,0)	(1,0)	(1,0)	(1,0)	(1,0)	(1,0)	(1,0)	(1,0)	(1,0)	
L1D -458>	(128,1)	(1,0)	(1,0)	(1,0)	(1,0)	(1,0)	(1,0)	(1,0)	(1,0)	(1,0)	(1,0)	(1,0)	(1,0)	(1,0)	(1,0)	(1,0)	
L1D -457>	(127,1)	(1,0)	(1,0)	(1,0)	(1,0)	(1,0)	(1,0)	(1,0)	(1,0)	(1,0)	(1,0)	(1,0)	(1,0)	(1,0)	(1,0)	(1,0)	
L1D -456>	(219,2)	(0,1)	(1,0)	(1,0)	(1,0)	(1,0)	(1,0)	(1,0)	(1,0)	(1,0)	(1,0)	(1,0)	(1,0)	(1,0)	(1,0)	(1,0)	
L1D -455>	(1,0)	(1,0)	(1,0)	(1,0)	(1,0)	(1,0)	(1,0)	(1,0)	(1,0)	(1,0)	(1,0)	(1,0)	(1,0)	(1,0)	(1,0)	(1,0)	
L1D -454>	(454,1)	(1,0)	(1,0)	(1,0)	(1,0)	(1,0)	(1,0)	(1,0)	(1,0)	(1,0)	(1,0)	(1,0)	(1,0)	(1,0)	(1,0)	(1,0)	
L1D -453>	(1,0)	(1,0)	(1,0)	(1,0)	(1,0)	(1,0)	(1,0)	(1,0)	(1,0)	(1,0)	(1,0)	(1,0)	(1,0)	(1,0)	(1,0)	(1,0)	
L1D -452>	(1,0)	(1,0)	(1,0)	(1,0)	(1,0)	(1,0)	(1,0)	(1,0)	(1,0)	(1,0)	(1,0)	(1,0)	(1,0)	(1,0)	(1,0)	(1,0)	
L1D -451>	(0,40)	(244,1)	(221,1)	(3,2)	(114,1)	(1,0)	(1,0)	(1,0)	(1,0)	(1,0)	(1,0)	(1,0)	(1,0)	(1,0)	(1,0)	(1,0)	
L1D -450>	(113,3)	(116,1)	(1,0)	(1,0)	(1,0)	(1,0)	(1,0)	(1,0)	(1,0)	(1,0)	(1,0)	(1,0)	(1,0)	(1,0)	(1,0)	(1,0)	
L1D -449>	(1,0)	(1,0)	(1,0)	(1,0)	(1,0)	(1,0)	(1,0)	(1,0)	(1,0)	(1,0)	(1,0)	(1,0)	(1,0)	(1,0)	(1,0)	(1,0)	
L1D -448>	(0,44)	(-3,9)	(1,0)	(1,0)	(1,0)	(1,0)	(1,0)	(1,0)	(1,0)	(1,0)	(1,0)	(1,0)	(1,0)	(1,0)	(1,0)	(1,0)	
L1D -447>	(-45,6)	(1,0)	(1,0)	(1,0)	(1,0)	(1,0)	(1,0)	(1,0)	(1,0)	(1,0)	(1,0)	(1,0)	(1,0)	(1,0)	(1,0)	(1,0)	
L1D -446>	(114,9)	(1,0)	(1,0)	(1,0)	(1,0)	(1,0)	(1,0)	(1,0)	(1,0)	(1,0)	(1,0)	(1,0)	(1,0)	(1,0)	(1,0)	(1,0)	
L1D -445>	(113,6)	(112,1)	(114,1)	(1,0)	(1,0)	(1,0)	(1,0)	(1,0)	(1,0)	(1,0)	(1,0)	(1,0)	(1,0)	(1,0)	(1,0)	(1,0)	
L1D -444>	(443,1)	(112,2)	(0,3)	(115,4)	(-45,1)	(1,0)	(1,0)	(1,0)	(1,0)	(1,0)	(1,0)	(1,0)	(1,0)	(1,0)	(1,0)	(1,0)	
L1D -443>	(226,1)	(111,3)	(0,3)	(114,1)	(337,1)	(110,1)	(1,0)	(1,0)	(1,0)	(1,0)	(1,0)	(1,0)	(1,0)	(1,0)	(1,0)	(1,0)	
L1D -442>	(212,5)	(113,3)	(442,112)	(215,10)	(421,4)	(108,4)	(110,11)	(220,3)	(441,18)	(439,35)	(443,1)	(105,2)	(0,19)	(437,2)	(440,5)	(438,2)	
L1D -441>	(212,9)	(104,8)	(439,3)	(108,1)	(1,0)	(1,0)	(1,0)	(1,0)	(1,0)	(1,0)	(1,0)	(1,0)	(1,0)	(1,0)	(1,0)	(1,0)	
L1D -440>	(141,1)	(1,0)	(1,0)	(1,0)	(1,0)	(1,0)	(1,0)	(1,0)	(1,0)	(1,0)	(1,0)	(1,0)	(1,0)	(1,0)	(1,0)	(1,0)	
L1D -439>	(146,1)	(0,3)	(1,0)	(1,0)	(1,0)	(1,0)	(1,0)	(1,0)	(1,0)	(1,0)	(1,0)	(1,0)	(1,0)	(1,0)	(1,0)	(1,0)	
L1D -438>	(1,0)	(1,0)	(1,0)	(1,0)	(1,0)	(1,0)	(1,0)	(1,0)	(1,0)	(1,0)	(1,0)	(1,0)	(1,0)	(1,0)	(1,0)	(1,0)	
L1D -437>	(0,6)	(2,24)	(419,5)	(1,8)	(146,2)	(-2,5)	(266,1)	(1,0)	(1,0)	(1,0)	(1,0)	(1,0)	(1,0)	(1,0)	(1,0)	(1,0)	
L1D -436>	(0,3)	(146,2)	(-1,1)	(256,1)	(-9,1)	(436,1)	(1,0)	(1,0)	(1,0)	(1,0)	(1,0)	(1,0)	(1,0)	(1,0)	(1,0)	(1,0)	
L1D -435>	(-2,2)	(251,1)	(2,2)	(0,1)	(32,1)	(265,1)	(-4,1)	(419,1)	(283,1)	(1,0)	(1,0)	(1,0)	(1,0)	(1,0)	(1,0)	(1,0)	
L1D -434>	(298,2)	(434,2)	(-2,5)	(106,2)	(234,1)	(2,15)	(0,3)	(136,2)	(-1,1)	(154,2)	(419,4)	(1,0)	(1,0)	(1,0)	(1,0)	(1,0)	
L1D -433>	(16,1)	(1,0)	(1,0)	(1,0)	(1,0)	(1,0)	(1,0)	(1,0)	(1,0)	(1,0)	(1,0)	(1,0)	(1,0)	(1,0)	(1,0)	(1,0)	
L1D -432>	(1,0)	(1,0)	(1,0)	(1,0)	(1,0)	(1,0)	(1,0)	(1,0)	(1,0)	(1,0)	(1,0)	(1,0)	(1,0)	(1,0)	(1,0)	(1,0)	
L1D -431>	(1,0)	(1,0)	(1,0)	(1,0)	(1,0)	(1,0)	(1,0)	(1,0)	(1,0)	(1,0)	(1,0)	(1,0)	(1,0)	(1,0)	(1,0)	(1,0)	
L1D -430>	(1,0)	(1,0)	(1,0)	(1,0)	(1,0)	(1,0)	(1,0)	(1,0)	(1,0)	(1,0)	(1,0)	(1,0)	(1,0)	(1,0)	(1,0)	(1,0)	
L1D -429>	(1,0)	(1,0)	(1,0)	(1,0)	(1,0)	(1,0)	(1,0)	(1,0)	(1,0)	(1,0)	(1,0)	(1,0)	(1,0)	(1,0)	(1,0)	(1,0)	
L1D -428>	(456,1)	(1,0)	(1,0)	(1,0)	(1,0)	(1,0)	(1,0)	(1,0)	(1,0)	(1,0)	(1,0)	(1,0)	(1,0)	(1,0)	(1,0)	(1,0)	
L1D -427>	(1,0)	(1,0)	(1,0)	(1,0)	(1,0)	(1,0)	(1,0)	(1,0)	(1,0)	(1,0)	(1,0)	(1,0)	(1,0)	(1,0)	(1,0)	(1,0)	
L1D -426>	(-8,1)	(1,0)	(1,0)	(1,0)	(1,0)	(1,0)	(1,0)	(1,0)	(1,0)	(1,0)	(1,0)	(1,0)	(1,0)	(1,0)	(1,0)	(1,0)	
L1D -425>	(0,1)	(1,0)	(1,0)	(1,0)	(1,0)	(1,0)	(1,0)	(1,0)	(1,0)	(1,0)	(1,0)	(1,0)	(1,0)	(1,0)	(1,0)	(1,0)	
L1D -424>	(424,1)	(1,0)	(1,0)	(1,0)	(1,0)	(1,0)	(1,0)	(1,0)	(1,0)	(1,0)	(1,0)	(1,0)	(1,0)	(1,0)	(1,0)	(1,0)	
L1D -423>	(1,0)	(1,0)	(1,0)	(1,0)	(1,0)	(1,0)	(1,0)	(1,0)	(1,0)	(1,0)	(1,0)	(1,0)	(1,0)	(1,0)	(1,0)	(1,0)	
L1D -422>	(1,1)	(4,5)	(1,0)	(1,0)	(1,0)	(1,0)	(1,0)	(1,0)	(1,0)	(1,0)	(1,0)	(1,0)	(1,0)	(1,0)	(1,0)	(1,0)	
L1D -421>	(1,0)	(1,0)	(1,0)	(1,0)	(1,0)	(1,0)	(1,0)	(1,0)	(1,0)	(1,0)	(1,0)	(1,0)	(1,0)	(1,0)	(1,0)	(1,0)	
L1D -420>	(1,0)	(1,0)	(1,0)	(1,0)	(1,0)	(1,0)	(1,0)	(1,0)	(1,0)	(1,0)	(1,0)	(1,0)	(1,0)	(1,0)	(1,0)	(1,0)	
L1D -419>	(0,1)	(1,0)	(1,0)	(1,0)	(1,0)	(1,0)	(1,0)	(1,0)	(1,0)	(1,0)	(1,0)	(1,0)	(1,0)	(1,0)	(1,0)	(1,0)	
L1D -418>	(1,0)	(1,0)	(1,0)	(1,0)	(1,0)	(1,0)	(1,0)	(1,0)	(1,0)	(1,0)	(1,0)	(1,0)	(1,0)	(1,0)	(1,0)	(1,0)	
L1D -417>	(1,0)	(1,0)	(1,0)	(1,0)	(1,0)	(1,0)	(1,0)	(1,0)	(1,0)	(1,0)	(1,0)	(1,0)	(1,0)	(1,0)	(1,0)	(1,0)	
L1D -416>	(1,0)	(1,0)	(1,0)	(1,0)	(1,0)	(1,0)	(1,0)	(1,0)	(1,0)	(1,0)	(1,0)	(1,0)	(1,0)	(1,0)	(1,0)	(1,0)	
L1D -415>	(1,0)	(1,0)	(1,0)	(1,0)	(1,0)	(1,0)	(1,0)	(1,0)	(1,0)	(1,0)	(1,0)	(1,0)	(1,0)	(1,0)	(1,0)	(1,0)	
L1D -414>	(1,0)	(1,0)	(1,0)	(1,0)	(1,0)	(1,0)	(1,0)	(1,0)	(1,0)	(1,0)	(1,0)	(1,0)	(1,0)	(1,0)	(1,0)	(1,0)	
L1D -413>	(413,1)	(2,1)	(1,0)	(1,0)	(1,0)	(1,0)	(1,0)	(1,0)	(1,0)	(1,0)	(1,0)	(1,0)	(1,0)	(1,0)	(1,0)	(1,0)	
L1D -412>	(0,4)	(412,1)	(200,1)	(183,1)	(84,1)	(1,0)	(1,0)	(1,0)	(1,0)	(1,0)	(1,0)	(1,0)	(1,0)	(1,0)	(1,0)	(1,0)	
L1D -411>	(339,1)	(1,0)	(1,0)	(1,0)	(1,0)	(1,0)	(1,0)	(1,0)	(1,0)	(1,0)	(1,0)	(1,0)	(1,0)	(1,0)	(1,0)	(1,0)	
L1D -410>	(0,2)	(1,0)	(1,0)	(1,0)	(1,0)	(1,0)	(1,0)	(1,0)	(1,0)	(1,0)	(1,0)	(1,0)	(1,0)	(1,0)	(1,0)	(1,0)	
L1D -409>	(0,2)	(1,0)	(1,0)	(1,0)	(1,0)	(1,0)	(1,0)	(1,0)	(1,0)	(1,0)	(1,0)	(1,0)	(1,0)	(1,0)	(1,0)	(1,0)	
L1D -408>	(0,2)	(1,0)	(1,0)	(1,0)	(1,0)	(1,0)	(1,0)	(1,0)	(1,0)	(1,0)	(1,0)	(1,0)	(1,0)	(1,0)	(1,0)	(1,0)	
L1D -407>	(1,0)	(1,0)	(1,0)	(1,0)	(1,0)	(1,0)	(1,0)	(1,0)	(1,0)	(1,0)	(1,0)	(1,0)	(1,0)	(1,0)	(1,0)	(1,0)	
L1D -406>	(0,1)	(1,0)	(1,0)	(1,0)	(1,0)	(1,0)	(1,0)	(1,0)	(1,0)	(1,0)	(1,0)	(1,0)	(1,0)	(1,0)	(1,0)	(1,0)	
L1D -405>	(133,3)	(0,6)	(405,2)	(106,2)	(1,0)	(1,0)	(1,0)	(1,0)	(1,0)	(1,0)	(1,0)	(1,0)	(1,0)	(1,0)	(1,0)	(1,0)	
L1D -404>	(1,0)	(1,0)	(1,0)	(1,0)	(1,0)	(1,0)	(1,0)	(1,0)	(1,0)	(1,0)	(1,0)	(1,0)	(1,0)	(1,0)	(1,0)	(1,0)	
L1D -403>	(403,3)	(232,5)	(123,1)	(105,2)	(97,1)	(104,1)	(1,0)	(1,0)	(1,0)	(1,0)	(1,0)	(1,0)	(1,0)	(1,0)	(1,0)	(1,0)	
L1D -402>	(4,1)	(1,0)	(1,0)	(1,0)	(1,0)	(1,0)	(1,0)	(1,0)	(1,0)	(1,0)	(1,0)	(1,0)	(1,0)	(1,0)	(1,0)	(1,0)	
L1D -401>	(1,0)	(1,0)	(1,0)	(1,0)	(1,0)	(1,0)	(1,0)	(1,0)	(1,0)	(1,0)	(1,0)	(1,0)	(1,0)	(1,0)	(1,0)	(1,0)	
L1D -400>	(0,3)	(283,1)	(1,0)	(1,0)	(1,0)	(1,0)	(1,0)	(1,0)	(1,0)	(1,0)	(1,0)	(1,0)	(1,0)	(1,0)	(1,0)	(1,0)	
L1D -399>	(434,1)	(1,0)	(1,0)	(1,0)	(1,0)	(1,0)	(1,0)	(1,0)	(1,0)	(1,0)	(1,0)	(1,0)	(1,0)	(1,0)	(1,0)	(1,0)	
L1D -398>	(-44,2)	(0,5)	(398,3)	(1,0)	(1,0)	(1,0)	(1,0)	(1,0)	(1,0)	(1,0)	(1,0)	(1,0)	(1,0)	(1,0)	(1,0)	(1,0)	
L1D -397>	(0,1)	(1,0)	(1,0)	(1,0)	(1,0)	(1,0)	(1,0)	(1,0)	(1,0)	(1,0)	(1,0)	(1,0)	(1,0)	(1,0)	(1,0)	(1,0)	
L1D -396>	(396,1)	(0,1)	(1,0)	(1,0)	(1,0)	(1,0)	(1,0)	(1,0)	(1,0)	(1,0)	(1,0)	(1,0)	(1,0)	(1,0)	(1,0)	(1,0)	
L1D -395>	(187,1)	(191,1)	(1,0)	(1,0)	(1,0)	(1,0)	(1,0)	(1,0)	(1,0)	(1,0)	(1,0)	(1,0)	(1,0)	(1,0)	(1,0)	(1,0)	
L1D -394>	(0,1)	(1,0)	(1,0)	(1,0)	(1,0)	(1,0)	(1,0)	(1,0)	(1,0)	(1,0)	(1,0)	(1,0)	(1,0)	(1,0)	(1,0)	(1,0)	
L1D -393>	(359,1)	(1,0)	(1,0)	(1,0)	(1,0)	(1,0)	(1,0)	(1,0)	(1,0)	(1,0)	(1,0)	(1,0)	(1,0)	(1,0)	(1,0)	(1,0)	
L1D -392>	(184,1)	(1,0)	(1,0)	(1,0)	(1,0)	(1,0)	(1,0)	(1,0)	(1,0)	(1,0)	(1,0)	(1,0)	(1,0)	(1,0)	(1,0)	(1,0)	
L1D -391>	(1,0)	(1,0)	(1,0)	(1,0)	(1,0)	(1,0)	(1,0)	(1,0)	(1,0)	(1,0)	(1,0)	(1,0)	(1,0)	(1,0)	(1,0)	(1,0)	
L1D -390>	(0,12)	(-52,1)	(1,0)	(1,0)	(1,0)	(1,0)	(1,0)	(1,0)	(1,0)	(1,0)	(1,0)	(1,0)	(1,0)	(1,0)	(1,0)	(1,0)	
L1D -389>	(1,0)	(1,0)	(1,0)	(1,0)	(1,0)	(1,0)	(1,0)	(1,0)	(1,0)	(1,0)	(1,0)	(1,0)	(1,0)	(1,0)	(1,0)	(1,0)	
L1D -388>	(1,0)	(1,0)	(1,0)	(1,0)	(1,0)	(1,0)	(1,0)	(1,0)	(1,0)	(1,0)	(1,0)	(1,0)	(1,0)	(1,0)	(1,0)	(1,0)	
L1D -387>	(1,0)	(1,0)	(1,0)	(1,0)	(1,0)	(1,0)	(1,0)	(1,0)	(1,0)	(1,0)	(1,0)	(1,0)	(1,0)	(1,0)	(1,0)	(1,0)	
L1D -386>	(1,0)	(1,0)	(1,0)	(1,0)	(1,0)	(1,0)	(1,0)	(1,0)	(1,0)	(1,0)	(1,0)	(1,0)	(1,0)	(1,0)	(1,0)	(1,0)	
L1D -385>	(1,0)	(1,0)	(1,0)	(1,0)	(1,0)	(1,0)	(1,0)	(1,0)	(1,0)	(1,0)	(1,0)	(1,0)	(1,0)	(1,0)	(1,0)	(1,0)	
L1D -384>	(1,0)	(1,0)	(1,0)	(1,0)	(1,0)	(1,0)	(1,0)	(1,0)	(1,0)	(1,0)	(1,0)	(1,0)	(1,0)	(1,0)	(1,0)	(1,0)	
L1D -383>	(1,0)	(1,0)	(1,0)	(1,0)	(1,0)	(1,0)	(1,0)	(1,0)	(1,0)	(1,0)	(1,0)	(1,0)	(1,0)	(1,0)	(1,0)	(1,0)	
L1D -382>	(1,0)	(1,0)	(1,0)	(1,0)	(1,0)	(1,0)	(1,0)	(1,0)	(1,0)	(1,0)	(1,0)	(1,0)	(1,0)	(1,0)	(1,0)	(1,0)	
L1D -381>	(3,1)	(1,0)	(1,0)	(1,0)	(1,0)	(1,0)	(1,0)	(1,0)	(1,0)	(1,0)	(1,0)	(1,0)	(1,0)	(1,0)	(1,0)	(1,0)	
L1D -380>	(-32,1)	(1,0)	(1,0)	(1,0)	(1,0)	(1,0)	(1,0)	(1,0)	(1,0)	(1,0)	(1,0)	(1,0)	(1,0)	(1,0)	(1,0)	(1,0)	
L1D -379>	(1,0)	(1,0)	(1,0)	(1,0)	(1,0)	(1,0)	(1,0)	(1,0)	(1,0)	(1,0)	(1,0)	(1,0)	(1,0)	(1,0)	(1,0)	(1,0)	
L1D -378>	(3,1)	(378,1)	(1,0)	(1,0)	(1,0)	(1,0)	(1,0)	(1,0)	(1,0)	(1,0)	(1,0)	(1,0)	(1,0)	(1,0)	(1,0)	(1,0)	
L1D -377>	(1,0)	(1,0)	(1,0)	(1,0)	(1,0)	(1,0)	(1,0)	(1,0)	(1,0)	(1,0)	(1,0)	(1,0)	(1,0)	(1,0)	(1,0)	(1,0)	
L1D -376>	(1,0)	(1,0)	(1,0)	(1,0)	(1,0)	(1,0)	(1,0)	(1,0)	(1,0)	(1,0)	(1,0)	(1,0)	(1,0)	(1,0)	(1,0)	(1,0)	
L1D -375>	(1,0)	(1,0)	(1,0)	(1,0)	(1,0)	(1,0)	(1,0)	(1,0)	(1,0)	(1,0)	(1,0)	(1,0)	(1,0)	(1,0)	(1,0)	(1,0)	
L1D -374>	(1,0)	(1,0)	(1,0)	(1,0)	(1,0)	(1,0)	(1,0)	(1,0)	(1,0)	(1,0)	(1,0)	(1,0)	(1,0)	(1,0)	(1,0)	(1,0)	
L1D -373>	(2,1)	(1,0)	(1,0)	(1,0)	(1,0)	(1,0)	(1,0)	(1,0)	(1,0)	(1,0)	(1,0)	(1,0)	(1,0)	(1,0)	(1,0)	(1,0)	
L1D -372>	(1,0)	(1,0)	(1,0)	(1,0)	(1,0)	(1,0)	(1,0)	(1,0)	(1,0)	(1,0)	(1,0)	(1,0)	(1,0)	(1,0)	(1,0)	(1,0)	
L1D -371>	(371,1)	(1,0)	(1,0)	(1,0)	(1,0)	(1,0)	(1,0)	(1,0)	(1,0)	(1,0)	(1,0)	(1,0)	(1,0)	(1,0)	(1,0)	(1,0)	
L1D -370>	(125,1)	(1,0)	(1,0)	(1,0)	(1,0)	(1,0)	(1,0)	(1,0)	(1,0)	(1,0)	(1,0)	(1,0)	(1,0)	(1,0)	(1,0)	(1,0)	
L1D -369>	(1,0)	(1,0)	(1,0)	(1,0)	(1,0)	(1,0)	(1,0)	(1,0)	(1,0)	(1,0)	(1,0)	(1,0)	(1,0)	(1,0)	(1,0)	(1,0)	
L1D -368>	(1,0)	(1,0)	(1,0)	(1,0)	(1,0)	(1,0)	(1,0)	(1,0)	(1,0)	(1,0)	(1,0)	(1,0)	(1,0)	(1,0)	(1,0)	(1,0)	
L1D -367>	(1,0)	(1,0)	(1,0)	(1,0)	(1,0)	(1,0)	(1,0)	(1,0)	(1,0)	(1,0)	(1,0)	(1,0)	(1,0)	(1,0)	(1,0)	(1,0)	
L1D -366>	(1,0)	(1,0)	(1,0)	(1,0)	(1,0)	(1,0)	(1,0)	(1,0)	(1,0)	(1,0)	(1,0)	(1,0)	(1,0)	(1,0)	(1,0)	(1,0)	
L1D -365>	(72,4)	(1,0)	(1,0)	(1,0)	(1,0)	(1,0)	(1,0)	(1,0)	(1,0)	(1,0)	(1,0)	(1,0)	(1,0)	(1,0)	(1,0)	(1,0)	
L1D -364>	(1,0)	(1,0)	(1,0)	(1,0)	(1,0)	(1,0)	(1,0)	(1,0)	(1,0)	(1,0)	(1,0)	(1,0)	(1,0)	(1,0)	(1,0)	(1,0)	
L1D -363>	(-2,15)	(72,16)	(80,1)	(8,1)	(1,0)	(1,0)	(1,0)	(1,0)	(1,0)	(1,0)	(1,0)	(1,0)	(1,0)	(1,0)	(1,0)	(1,0)	
L1D -362>	(0,1)	(72,3)	(-2,1)	(1,0)	(1,0)	(1,0)	(1,0)	(1,0)	(1,0)	(1,0)	(1,0)	(1,0)	(1,0)	(1,0)	(1,0)	(1,0)	
L1D -361>	(395,1)	(1,0)	(1,0)	(1,0)	(1,0)	(1,0)	(1,0)	(1,0)	(1,0)	(1,0)	(1,0)	(1,0)	(1,0)	(1,0)	(1,0)	(1,0)	
L1D -360>	(-2,8)	(1,0)	(1,0)	(1,0)	(1,0)	(1,0)	(1,0)	(1,0)	(1,0)	(1,0)	(1,0)	(1,0)	(1,0)	(1,0)	(1,0)	(1,0)	
L1D -359>	(-1,1)	(1,0)	(1,0)	(1,0)	(1,0)	(1,0)	(1,0)	(1,0)	(1,0)	(1,0)	(1,0)	(1,0)	(1,0)	(1,0)	(1,0)	(1,0)	
L1D -358>	(220,1)	(1,0)	(1,0)	(1,0)	(1,0)	(1,0)	(1,0)	(1,0)	(1,0)	(1,0)	(1,0)	(1,0)	(1,0)	(1,0)	(1,0)	(1,0)	
L1D -357>	(220,2)	(-2,3)	(-8,1)	(1,0)	(1,0)	(1,0)	(1,0)	(1,0)	(1,0)	(1,0)	(1,0)	(1,0)	(1,0)	(1,0)	(1,0)	(1,0)	
L1D -356>	(218,1)	(220,2)	(1,0)	(1,0)	(1,0)	(1,0)	(1,0)	(1,0)	(1,0)	(1,0)	(1,0)	(1,0)	(1,0)	(1,0)	(1,0)	(1,0)	
L1D -355>	(110,2)	(123,2)	(0,2)	(1,0)	(1,0)	(1,0)	(1,0)	(1,0)	(1,0)	(1,0)	(1,0)	(1,0)	(1,0)	(1,0)	(1,0)	(1,0)	
L1D -354>	(216,1)	(1,15)	(220,1)	(354,8)	(3,1)	(1,0)	(1,0)	(1,0)	(1,0)	(1,0)	(1,0)	(1,0)	(1,0)	(1,0)	(1,0)	(1,0)	
L1D -353>	(216,1)	(121,1)	(1,1)	(331,1)	(123,1)	(122,1)	(1,0)	(1,0)	(1,0)	(1,0)	(1,0)	(1,0)	(1,0)	(1,0)	(1,0)	(1,0)	
L1D -352>	(122,1)	(123,2)	(-2,39)	(110,2)	(120,1)	(1,0)	(1,0)	(1,0)	(1,0)	(1,0)	(1,0)	(1,0)	(1,0)	(1,0)	(1,0)	(1,0)	
L1D -351>	(217,1)	(120,1)	(352,2)	(335,1)	(332,1)	(1,0)	(1,0)	(1,0)	(1,0)	(1,0)	(1,0)	(1,0)	(1,0)	(1,0)	(1,0)	(1,0)	
L1D -350>	(110,1)	(118,1)	(343,1)	(1,0)	(1,0)	(1,0)	(1,0)	(1,0)	(1,0)	(1,0)	(1,0)	(1,0)	(1,0)	(1,0)	(1,0)	(1,0)	
L1D -349>	(328,2)	(325,1)	(119,1)	(0,2)	(333,1)	(1,0)	(1,0)	(1,0)	(1,0)	(1,0)	(1,0)	(1,0)	(1,0)	(1,0)	(1,0)	(1,0)	
L1D -348>	(118,2)	(123,1)	(-64,1)	(338,1)	(351,3)	(111,1)	(1,0)	(1,0)	(1,0)	(1,0)	(1,0)	(1,0)	(1,0)	(1,0)	(1,0)	(1,0)	
L1D -347>	(123,1)	(219,1)	(113,1)	(-65,1)	(0,1)	(341,1)	(349,1)	(1,0)	(1,0)	(1,0)	(1,0)	(1,0)	(1,0)	(1,0)	(1,0)	(1,0)	
L1D -346>	(110,1)	(346,6)	(1,0)	(1,0)	(1,0)	(1,0)	(1,0)	(1,0)	(1,0)	(1,0)	(1,0)	(1,0)	(1,0)	(1,0)	(1,0)	(1,0)	
L1D -345>	(123,1)	(-129,1)	(120,1)	(325,1)	(322,1)	(328,1)	(1,0)	(1,0)	(1,0)	(1,0)	(1,0)	(1,0)	(1,0)	(1,0)	(1,0)	(1,0)	
L1D -344>	(113,2)	(0,1)	(35,2)	(344,1)	(1,0)	(1,0)	(1,0)	(1,0)	(1,0)	(1,0)	(1,0)	(1,0)	(1,0)	(1,0)	(1,0)	(1,0)	
L1D -343>	(118,1)	(115,1)	(339,1)	(0,2)	(199,1)	(7,1)	(1,0)	(1,0)	(1,0)	(1,0)	(1,0)	(1,0)	(1,0)	(1,0)	(1,0)	(1,0)	
L1D -342>	(118,1)	(-112,1)	(114,2)	(326,1)	(117,1)	(1,0)	(1,0)	(1,0)	(1,0)	(1,0)	(1,0)	(1,0)	(1,0)	(1,0)	(1,0)	(1,0)	
L1D -341>	(220,1)	(110,2)	(216,1)	(107,2)	(219,6)	(0,1)	(348,1)	(114,1)	(120,1)	(9,2)	(1,0)	(1,0)	(1,0)	(1,0)	(1,0)	(1,0)	
L1D -340>	(123,3)	(113,1)	(219,21)	(0,2)	(110,7)	(108,2)	(111,4)	(209,5)	(115,1)	(118,4)	(122,2)	(4,1)	(218,1)	(109,1)	(81,1)	(-116,1)	
L1D -339>	(118,1)	(111,1)	(115,3)	(218,3)	(0,1)	(342,1)	(336,1)	(208,1)	(1,0)	(1,0)	(1,0)	(1,0)	(1,0)	(1,0)	(1,0)	(1,0)	
L1D -338>	(121,1)	(110,1)	(219,14)	(122,1)	(111,1)	(-134,1)	(1,0)	(1,0)	(1,0)	(1,0)	(1,0)	(1,0)	(1,0)	(1,0)	(1,0)	(1,0)	
L1D -337>	(113,19)	(122,4)	(220,3)	(0,2)	(111,17)	(110,30)	(200,5)	(218,1)	(215,1)	(219,7)	(120,6)	(3,2)	(-113,2)	(114,3)	(-112,1)	(6,2)	
L1D -336>	(108,3)	(121,1)	(333,1)	(110,18)	(37,1)	(220,1)	(0,1)	(344,1)	(1,0)	(1,0)	(1,0)	(1,0)	(1,0)	(1,0)	(1,0)	(1,0)	
L1D -335>	(213,5)	(120,19)	(123,18)	(220,42)	(108,100)	(115,4)	(111,50)	(219,73)	(109,5)	(209,1)	(113,2)	(197,10)	(122,10)	(119,17)	(112,19)	(335,1)	
L1D -334>	(219,13)	(118,6)	(218,11)	(122,3)	(117,7)	(210,3)	(108,23)	(107,30)	(110,70)	(123,3)	(3,3)	(113,0)	(105,4)	(220,9)	(111,6)	(217,5)	
L1D -333>	(123,3)	(0,6)	(121,1)	(124,24)	(105,2)	(113,2)	(110,1)	(219,1)	(331,1)	(112,1)	(108,5)	(2,1)	(111,1)	(-111,1)	(1,1)	(-109,1)	
L1D -332>	(-3,28)	(0,14)	(335,32)	(215,1)	(329,59)	(121,26)	(1,50)	(109,25)	(105,57)	(-2,49)	(106,20)	(110,26)	(201,16)	(111,72)	(108,67)	(196,15)	
L1D -331>	(0,35)	(113,33)	(114,17)	(334,95)	(107,39)	(328,105)	(217,1)	(105,16)	(332,18)	(-3,48)	(110,83)	(123,20)	(3,121)	(111,88)	(337,19)	(108,16)	
L1D -330>	(108,2)	(211,1)	(110,2)	(328,1)	(1,1)	(-2,1)	(90,3)	(113,1)	(116,1)	(111,1)	(120,5)	(1,0)	(1,0)	(1,0)	(1,0)	(1,0)	
L1D -329>	(114,6)	(221,11)	(117,41)	(108,11)	(111,91)	(191,15)	(-3,3)	(110,64)	(328,1)	(121,6)	(0,2)	(-114,7)	(192,21)	(329,13)	(105,3)	(120,2)	
L1D -328>	(213,1)	(110,20)	(0,2)	(184,1)	(191,7)	(-3,1)	(329,1)	(192,7)	(-108,1)	(-6,2)	(114,3)	(331,1)	(113,2)	(120,17)	(30,2)	(108,7)	
L1D -327>	(117,3)	(138,1)	(107,2)	(191,5)	(106,1)	(-5,3)	(327,3)	(111,1)	(-8,3)	(192,1)	(118,1)	(210,2)	(1,0)	(1,0)	(1,0)	(1,0)	
L1D -326>	(116,2)	(110,23)	(326,9)	(118,3)	(332,2)	(107,19)	(191,5)	(114,2)	(221,2)	(108,2)	(0,5)	(113,17)	(105,1)	(94,1)	(111,52)	(117,4)	
L1D -325>	(194,2)	(0,6)	(221,11)	(104,15)	(108,1)	(328,1)	(332,1)	(110,10)	(107,5)	(111,8)	(220,1)	(1,0)	(1,0)	(1,0)	(1,0)	(1,0)	
L1D -324>	(104,1)	(324,1)	(-8,1)	(0,1)	(110,1)	(116,1)	(-7,1)	(111,1)	(-10,1)	(1,0)	(1,0)	(1,0)	(1,0)	(1,0)	(1,0)	(1,0)	
L1D -323>	(111,2)	(110,6)	(-9,1)	(2,13)	(323,2)	(214,11)	(-1,6)	(113,2)	(1,0)	(1,0)	(1,0)	(1,0)	(1,0)	(1,0)	(1,0)	(1,0)	
L1D -322>	(1,1)	(0,1)	(191,3)	(332,1)	(322,1)	(107,3)	(319,1)	(221,1)	(1,0)	(1,0)	(1,0)	(1,0)	(1,0)	(1,0)	(1,0)	(1,0)	
L1D -321>	(324,1)	(319,1)	(331,2)	(214,27)	(315,1)	(108,1)	(-3,2)	(49,1)	(183,1)	(0,1)	(-1,1)	(-2,1)	(1,0)	(1,0)	(1,0)	(1,0)	
L1D -320>	(320,1)	(191,2)	(192,4)	(45,2)	(-10,1)	(0,1)	(117,1)	(112,1)	(1,0)	(1,0)	(1,0)	(1,0)	(1,0)	(1,0)	(1,0)	(1,0)	
L1D -319>	(191,2)	(322,1)	(319,1)	(0,1)	(340,1)	(-15,1)	(255,1)	(1,0)	(1,0)	(1,0)	(1,0)	(1,0)	(1,0)	(1,0)	(1,0)	(1,0)	
L1D -318>	(-2,1)	(474,1)	(0,7)	(79,1)	(318,3)	(3,1)	(62,1)	(1,0)	(1,0)	(1,0)	(1,0)	(1,0)	(1,0)	(1,0)	(1,0)	(1,0)	
L1D -317>	(107,1)	(110,1)	(108,1)	(315,2)	(330,1)	(0,11)	(1,0)	(1,0)	(1,0)	(1,0)	(1,0)	(1,0)	(1,0)	(1,0)	(1,0)	(1,0)	
L1D -316>	(2,50)	(102,1)	(193,1)	(1,45)	(348,1)	(-16,3)	(314,1)	(-44,1)	(255,1)	(1,0)	(1,0)	(1,0)	(1,0)	(1,0)	(1,0)	(1,0)	
L1D -315>	(108,1)	(-17,2)	(192,3)	(112,1)	(315,1)	(104,1)	(191,1)	(1,0)	(1,0)	(1,0)	(1,0)	(1,0)	(1,0)	(1,0)	(1,0)	(1,0)	
L1D -314>	(191,1)	(46,1)	(0,1)	(-128,1)	(1,0)	(1,0)	(1,0)	(1,0)	(1,0)	(1,0)	(1,0)	(1,0)	(1,0)	(1,0)	(1,0)	(1,0)	
L1D -313>	(-19,2)	(281,1)	(192,2)	(328,1)	(106,1)	(41,1)	(1,0)	(1,0)	(1,0)	(1,0)	(1,0)	(1,0)	(1,0)	(1,0)	(1,0)	(1,0)	
L1D -312>	(0,1)	(102,1)	(197,1)	(108,9)	(191,4)	(61,1)	(-93,1)	(1,0)	(1,0)	(1,0)	(1,0)	(1,0)	(1,0)	(1,0)	(1,0)	(1,0)	
L1D -311>	(108,1)	(102,1)	(110,1)	(332,1)	(335,3)	(321,1)	(-21,1)	(192,1)	(1,0)	(1,0)	(1,0)	(1,0)	(1,0)	(1,0)	(1,0)	(1,0)	
L1D -310>	(191,1)	(111,2)	(139,1)	(1,0)	(1,0)	(1,0)	(1,0)	(1,0)	(1,0)	(1,0)	(1,0)	(1,0)	(1,0)	(1,0)	(1,0)	(1,0)	
L1D -309>	(111,2)	(0,10)	(-134,1)	(309,2)	(191,1)	(138,1)	(29,1)	(245,1)	(-125,2)	(194,1)	(1,0)	(1,0)	(1,0)	(1,0)	(1,0)	(1,0)	
L1D -308>	(308,1)	(0,1)	(324,4)	(315,1)	(330,1)	(192,3)	(327,1)	(1,0)	(1,0)	(1,0)	(1,0)	(1,0)	(1,0)	(1,0)	(1,0)	(1,0)	
L1D -307>	(-128,1)	(-21,1)	(129,1)	(242,1)	(192,4)	(8,1)	(137,1)	(1,0)	(1,0)	(1,0)	(1,0)	(1,0)	(1,0)	(1,0)	(1,0)	(1,0)	
L1D -306>	(16,84)	(0,1)	(191,0)	(136,0)	(306,0)	(135,0)	(1,0)	(1,0)	(1,0)	(1,0)	(1,0)	(1,0)	(1,0)	(1,0)	(1,0)	(1,0)	
L1D -305>	(439,1)	(-61,1)	(305,1)	(308,1)	(1,0)	(1,0)	(1,0)	(1,0)	(1,0)	(1,0)	(1,0)	(1,0)	(1,0)	(1,0)	(1,0)	(1,0)	
L1D -304>	(111,1)	(110,1)	(0,4)	(304,1)	(439,1)	(-16,1)	(-4,1)	(1,0)	(1,0)	(1,0)	(1,0)	(1,0)	(1,0)	(1,0)	(1,0)	(1,0)	
L1D -303>	(1,0)	(1,0)	(1,0)	(1,0)	(1,0)	(1,0)	(1,0)	(1,0)	(1,0)	(1,0)	(1,0)	(1,0)	(1,0)	(1,0)	(1,0)	(1,0)	
L1D -302>	(-103,1)	(1,0)	(1,0)	(1,0)	(1,0)	(1,0)	(1,0)	(1,0)	(1,0)	(1,0)	(1,0)	(1,0)	(1,0)	(1,0)	(1,0)	(1,0)	
L1D -301>	(-5,1)	(-16,1)	(1,0)	(1,0)	(1,0)	(1,0)	(1,0)	(1,0)	(1,0)	(1,0)	(1,0)	(1,0)	(1,0)	(1,0)	(1,0)	(1,0)	
L1D -300>	(124,1)	(0,2)	(63,1)	(62,1)	(48,1)	(1,0)	(1,0)	(1,0)	(1,0)	(1,0)	(1,0)	(1,0)	(1,0)	(1,0)	(1,0)	(1,0)	
L1D -299>	(131,1)	(299,3)	(-52,1)	(283,2)	(-2,1)	(-108,1)	(-172,1)	(-106,1)	(150,1)	(171,1)	(-3,1)	(0,1)	(1,0)	(1,0)	(1,0)	(1,0)	
L1D -298>	(434,3)	(-105,4)	(298,5)	(26,1)	(-1,2)	(0,5)	(127,4)	(226,1)	(120,1)	(260,1)	(31,1)	(125,1)	(1,0)	(1,0)	(1,0)	(1,0)	
L1D -297>	(0,1)	(1,0)	(1,0)	(1,0)	(1,0)	(1,0)	(1,0)	(1,0)	(1,0)	(1,0)	(1,0)	(1,0)	(1,0)	(1,0)	(1,0)	(1,0)	
L1D -296>	(0,3)	(296,1)	(-138,1)	(152,1)	(-12,1)	(-13,1)	(1,0)	(1,0)	(1,0)	(1,0)	(1,0)	(1,0)	(1,0)	(1,0)	(1,0)	(1,0)	
L1D -295>	(0,1)	(1,0)	(1,0)	(1,0)	(1,0)	(1,0)	(1,0)	(1,0)	(1,0)	(1,0)	(1,0)	(1,0)	(1,0)	(1,0)	(1,0)	(1,0)	
L1D -294>	(-2,1)	(1,0)	(1,0)	(1,0)	(1,0)	(1,0)	(1,0)	(1,0)	(1,0)	(1,0)	(1,0)	(1,0)	(1,0)	(1,0)	(1,0)	(1,0)	
L1D -293>	(-1,4)	(74,1)	(0,2)	(147,1)	(1,0)	(1,0)	(1,0)	(1,0)	(1,0)	(1,0)	(1,0)	(1,0)	(1,0)	(1,0)	(1,0)	(1,0)	
L1D -292>	(1,0)	(1,0)	(1,0)	(1,0)	(1,0)	(1,0)	(1,0)	(1,0)	(1,0)	(1,0)	(1,0)	(1,0)	(1,0)	(1,0)	(1,0)	(1,0)	
L1D -291>	(264,1)	(126,1)	(291,1)	(1,0)	(1,0)	(1,0)	(1,0)	(1,0)	(1,0)	(1,0)	(1,0)	(1,0)	(1,0)	(1,0)	(1,0)	(1,0)	
L1D -290>	(167,1)	(4,1)	(271,1)	(11,30)	(47,2)	(130,2)	(5,1)	(1,0)	(1,0)	(1,0)	(1,0)	(1,0)	(1,0)	(1,0)	(1,0)	(1,0)	
L1D -289>	(289,1)	(1,0)	(1,0)	(1,0)	(1,0)	(1,0)	(1,0)	(1,0)	(1,0)	(1,0)	(1,0)	(1,0)	(1,0)	(1,0)	(1,0)	(1,0)	
L1D -288>	(1,0)	(1,0)	(1,0)	(1,0)	(1,0)	(1,0)	(1,0)	(1,0)	(1,0)	(1,0)	(1,0)	(1,0)	(1,0)	(1,0)	(1,0)	(1,0)	
L1D -287>	(16,6)	(127,1)	(0,1)	(126,1)	(1,0)	(1,0)	(1,0)	(1,0)	(1,0)	(1,0)	(1,0)	(1,0)	(1,0)	(1,0)	(1,0)	(1,0)	
L1D -286>	(-3,1)	(283,1)	(0,5)	(436,1)	(1,0)	(1,0)	(1,0)	(1,0)	(1,0)	(1,0)	(1,0)	(1,0)	(1,0)	(1,0)	(1,0)	(1,0)	
L1D -285>	(-3,5)	(-2,1)	(1,0)	(1,0)	(1,0)	(1,0)	(1,0)	(1,0)	(1,0)	(1,0)	(1,0)	(1,0)	(1,0)	(1,0)	(1,0)	(1,0)	
L1D -284>	(128,1)	(28,1)	(8,1)	(1,0)	(1,0)	(1,0)	(1,0)	(1,0)	(1,0)	(1,0)	(1,0)	(1,0)	(1,0)	(1,0)	(1,0)	(1,0)	
L1D -283>	(283,1)	(-3,13)	(-2,46)	(0,2)	(1,0)	(1,0)	(1,0)	(1,0)	(1,0)	(1,0)	(1,0)	(1,0)	(1,0)	(1,0)	(1,0)	(1,0)	
L1D -282>	(271,3)	(290,4)	(152,1)	(221,2)	(0,1)	(145,1)	(1,0)	(1,0)	(1,0)	(1,0)	(1,0)	(1,0)	(1,0)	(1,0)	(1,0)	(1,0)	
L1D -281>	(25,1)	(220,1)	(221,8)	(270,1)	(0,1)	(271,1)	(1,0)	(1,0)	(1,0)	(1,0)	(1,0)	(1,0)	(1,0)	(1,0)	(1,0)	(1,0)	
L1D -280>	(220,4)	(-48,3)	(281,1)	(221,11)	(101,1)	(280,1)	(4,1)	(0,1)	(-34,1)	(62,1)	(8,1)	(269,1)	(-29,2)	(1,0)	(1,0)	(1,0)	
L1D -279>	(-11,96)	(220,6)	(218,1)	(219,2)	(221,8)	(266,0)	(269,0)	(1,0)	(1,0)	(1,0)	(1,0)	(1,0)	(1,0)	(1,0)	(1,0)	(1,0)	
L1D -278>	(221,10)	(220,1)	(219,3)	(268,2)	(218,3)	(-2,3)	(264,1)	(233,1)	(1,0)	(1,0)	(1,0)	(1,0)	(1,0)	(1,0)	(1,0)	(1,0)	
L1D -277>	(266,2)	(220,5)	(219,4)	(267,2)	(221,10)	(259,1)	(218,1)	(1,0)	(1,0)	(1,0)	(1,0)	(1,0)	(1,0)	(1,0)	(1,0)	(1,0)	
L1D -276>	(219,6)	(220,8)	(265,2)	(266,2)	(217,1)	(132,1)	(260,1)	(0,1)	(1,0)	(1,0)	(1,0)	(1,0)	(1,0)	(1,0)	(1,0)	(1,0)	
L1D -275>	(218,2)	(219,6)	(-47,1)	(264,2)	(265,1)	(217,1)	(1,0)	(1,0)	(1,0)	(1,0)	(1,0)	(1,0)	(1,0)	(1,0)	(1,0)	(1,0)	
L1D -274>	(268,1)	(220,6)	(219,1)	(0,1)	(14,1)	(217,1)	(239,1)	(1,0)	(1,0)	(1,0)	(1,0)	(1,0)	(1,0)	(1,0)	(1,0)	(1,0)	
L1D -273>	(264,1)	(221,2)	(219,2)	(217,1)	(220,15)	(201,1)	(248,1)	(1,0)	(1,0)	(1,0)	(1,0)	(1,0)	(1,0)	(1,0)	(1,0)	(1,0)	
L1D -272>	(218,3)	(272,5)	(277,1)	(219,1)	(135,1)	(0,21)	(253,1)	(44,1)	(220,2)	(221,7)	(-133,3)	(123,1)	(261,1)	(-24,1)	(8,1)	(-1,1)	
L1D -271>	(282,47)	(-16,61)	(218,4)	(220,8)	(13,29)	(11,21)	(86,19)	(270,3)	(219,1)	(0,19)	(290,2)	(134,1)	(276,2)	(1,83)	(221,3)	(271,7)	
L1D -270>	(0,37)	(217,3)	(218,2)	(221,60)	(132,1)	(271,1)	(220,1)	(231,1)	(-17,2)	(289,3)	(219,1)	(261,1)	(1,0)	(1,0)	(1,0)	(1,0)	
L1D -269>	(0,7)	(220,34)	(221,89)	(218,1)	(1,0)	(1,0)	(1,0)	(1,0)	(1,0)	(1,0)	(1,0)	(1,0)	(1,0)	(1,0)	(1,0)	(1,0)	
L1D -268>	(336,1)	(221,115)	(-14,1)	(217,0)	(279,0)	(-1,0)	(220,46)	(219,20)	(1,0)	(1,0)	(1,0)	(1,0)	(1,0)	(1,0)	(1,0)	(1,0)	
L1D -267>	(277,1)	(220,89)	(217,1)	(221,10)	(0,6)	(219,19)	(-1,2)	(268,2)	(256,1)	(262,1)	(105,1)	(218,13)	(255,1)	(232,1)	(1,0)	(1,0)	
L1D -266>	(219,59)	(272,2)	(220,3)	(0,5)	(218,11)	(221,74)	(135,2)	(125,1)	(265,1)	(1,1)	(263,1)	(1,0)	(1,0)	(1,0)	(1,0)	(1,0)	
L1D -265>	(0,53)	(217,4)	(218,35)	(271,3)	(276,1)	(219,1)	(220,99)	(137,1)	(277,1)	(1,0)	(1,0)	(1,0)	(1,0)	(1,0)	(1,0)	(1,0)	
L1D -264>	(-1,8)	(-35,1)	(0,11)	(218,2)	(219,45)	(-136,1)	(-143,1)	(115,1)	(137,1)	(264,9)	(251,1)	(-8,4)	(216,1)	(-207,1)	(64,1)	(217,1)	
L1D -263>	(218,11)	(269,1)	(259,1)	(139,1)	(221,6)	(252,1)	(263,1)	(220,1)	(0,1)	(1,0)	(1,0)	(1,0)	(1,0)	(1,0)	(1,0)	(1,0)	
L1D -262>	(216,2)	(217,3)	(273,1)	(262,1)	(197,1)	(221,1)	(220,100)	(261,1)	(318,1)	(1,0)	(1,0)	(1,0)	(1,0)	(1,0)	(1,0)	(1,0)	
L1D -261>	(220,3)	(267,2)	(221,64)	(219,5)	(0,1)	(109,1)	(115,1)	(1,0)	(1,0)	(1,0)	(1,0)	(1,0)	(1,0)	(1,0)	(1,0)	(1,0)	
L1D -260>	(-11,9)	(3,8)	(2,39)	(220,63)	(133,2)	(75,3)	(221,7)	(39,8)	(219,3)	(6,2)	(10,23)	(272,1)	(1,0)	(1,0)	(1,0)	(1,0)	
L1D -259>	(195,3)	(220,37)	(139,2)	(121,1)	(219,45)	(270,1)	(-12,12)	(264,1)	(-60,1)	(235,1)	(9,3)	(167,30)	(135,2)	(249,2)	(232,1)	(260,1)	
L1D -258>	(-13,119)	(1,8)	(277,1)	(131,1)	(219,3)	(218,6)	(258,1)	(476,1)	(247,1)	(89,3)	(0,2)	(1,0)	(1,0)	(1,0)	(1,0)	(1,0)	
L1D -257>	(129,2)	(221,11)	(-3,24)	(-14,5)	(71,1)	(217,4)	(0,1)	(410,1)	(241,1)	(-1,7)	(1,0)	(1,0)	(1,0)	(1,0)	(1,0)	(1,0)	
L1D -256>	(0,31)	(259,7)	(128,3)	(221,99)	(1,2)	(252,44)	(72,1)	(256,7)	(141,3)	(133,2)	(115,1)	(101,1)	(81,1)	(264,2)	(265,1)	(258,1)	
L1D -255>	(216,8)	(259,1)	(195,1)	(221,2)	(0,3)	(1,2)	(220,50)	(280,1)	(175,1)	(-64,3)	(79,1)	(191,1)	(255,1)	(62,1)	(-1,1)	(1,0)	
L1D -254>	(1,34)	(217,12)	(237,1)	(139,2)	(219,23)	(250,6)	(-2,51)	(253,86)	(71,11)	(265,1)	(257,66)	(0,5)	(220,7)	(218,1)	(4,1)	(-17,2)	
L1D -253>	(259,1)	(219,1)	(221,5)	(252,6)	(-1,1)	(253,5)	(257,7)	(264,1)	(218,1)	(15,1)	(129,1)	(1,0)	(1,0)	(1,0)	(1,0)	(1,0)	
L1D -252>	(256,4)	(128,5)	(257,1)	(221,10)	(184,1)	(-3,4)	(-52,1)	(315,1)	(218,1)	(248,1)	(-2,1)	(455,1)	(252,1)	(0,2)	(1,0)	(1,0)	
L1D -251>	(219,3)	(220,5)	(-32,1)	(262,1)	(246,1)	(105,1)	(251,1)	(136,1)	(128,1)	(1,0)	(1,0)	(1,0)	(1,0)	(1,0)	(1,0)	(1,0)	
L1D -250>	(219,12)	(239,1)	(246,21)	(218,1)	(217,1)	(75,1)	(250,1)	(-8,2)	(221,1)	(-7,4)	(254,1)	(1,0)	(1,0)	(1,0)	(1,0)	(1,0)	
L1D -249>	(259,1)	(260,1)	(220,17)	(217,1)	(249,3)	(102,2)	(218,2)	(219,1)	(248,6)	(99,1)	(221,3)	(237,1)	(1,0)	(1,0)	(1,0)	(1,0)	
L1D -248>	(221,1)	(264,1)	(0,3)	(-8,1)	(248,0)	(219,1)	(220,112)	(120,0)	(135,0)	(260,0)	(196,0)	(1,0)	(1,0)	(1,0)	(1,0)	(1,0)	
L1D -247>	(220,2)	(236,1)	(-85,78)	(0,2)	(-215,1)	(247,23)	(-216,15)	(-218,2)	(-84,5)	(1,3)	(245,18)	(221,1)	(-217,3)	(218,2)	(-64,1)	(46,1)	
L1D -246>	(122,1)	(121,1)	(256,1)	(-83,12)	(0,1)	(-89,14)	(221,4)	(236,1)	(1,1)	(-216,3)	(75,4)	(243,1)	(246,3)	(245,1)	(1,0)	(1,0)	
L1D -245>	(218,1)	(0,11)	(-87,115)	(219,2)	(245,47)	(242,78)	(-215,2)	(-216,1)	(235,1)	(221,10)	(8,4)	(13,5)	(-107,2)	(49,1)	(243,1)	(247,1)	
L1D -244>	(0,5)	(218,2)	(-91,2)	(1,2)	(40,1)	(220,5)	(221,2)	(13,5)	(-71,1)	(242,5)	(-65,1)	(-13,1)	(-107,2)	(243,1)	(246,1)	(379,1)	
L1D -243>	(221,10)	(0,6)	(217,3)	(-92,2)	(-107,2)	(-83,3)	(219,1)	(218,1)	(241,8)	(220,10)	(55,1)	(-84,6)	(-73,1)	(-85,1)	(-216,2)	(13,5)	
L1D -242>	(221,22)	(0,9)	(244,1)	(218,2)	(238,2)	(3,1)	(232,3)	(1,83)	(242,88)	(245,20)	(247,17)	(-90,11)	(-84,8)	(220,1)	(239,6)	(-107,1)	
L1D -241>	(221,12)	(1,9)	(217,5)	(-89,5)	(224,2)	(-107,5)	(0,9)	(240,8)	(235,7)	(103,1)	(-110,2)	(-216,4)	(-215,3)	(220,3)	(13,2)	(2,2)	
L1D -240>	(228,2)	(0,4)	(-110,3)	(103,9)	(220,5)	(221,50)	(216,2)	(239,6)	(-2,7)	(234,2)	(240,1)	(238,7)	(241,7)	(219,3)	(112,1)	(237,1)	
L1D -239>	(220,14)	(221,30)	(219,5)	(-110,4)	(236,1)	(0,2)	(218,6)	(103,1)	(-217,1)	(-84,2)	(234,2)	(233,5)	(-93,2)	(244,3)	(-1,1)	(229,1)	
L1D -238>	(219,23)	(-107,28)	(-100,3)	(226,1)	(-98,2)	(19,2)	(1,7)	(0,4)	(237,9)	(217,3)	(-110,3)	(-92,2)	(13,3)	(-105,3)	(-106,3)	(-103,4)	
L1D -237>	(217,3)	(454,1)	(218,3)	(221,23)	(236,1)	(0,4)	(-219,1)	(237,13)	(240,12)	(103,1)	(219,4)	(220,4)	(21,1)	(1,1)	(239,1)	(227,3)	
L1D -236>	(220,4)	(221,77)	(3,110)	(1,3)	(223,1)	(0,2)	(215,2)	(138,2)	(127,1)	(236,5)	(237,5)	(240,2)	(235,1)	(6,1)	(100,1)	(-111,2)	
L1D -235>	(219,13)	(232,5)	(233,39)	(235,4)	(0,4)	(234,2)	(6,9)	(5,1)	(224,1)	(220,21)	(1,1)	(3,16)	(243,1)	(238,7)	(231,7)	(260,1)	
L1D -234>	(221,7)	(270,2)	(1,6)	(-100,36)	(103,3)	(6,2)	(218,19)	(237,2)	(-211,1)	(232,16)	(3,18)	(229,3)	(219,16)	(220,2)	(234,8)	(228,7)	
L1D -233>	(3,41)	(233,12)	(123,6)	(6,2)	(224,2)	(227,3)	(0,12)	(242,2)	(219,5)	(235,3)	(232,44)	(-216,1)	(237,2)	(221,20)	(9,2)	(218,12)	
L1D -232>	(219,13)	(0,20)	(221,6)	(232,12)	(-117,6)	(-111,11)	(-120,1)	(105,9)	(1,14)	(-114,11)	(234,56)	(235,11)	(229,47)	(230,47)	(3,42)	(-100,15)	
L1D -231>	(6,35)	(231,15)	(0,30)	(221,97)	(4,4)	(-120,1)	(-114,6)	(218,2)	(10,2)	(-99,3)	(7,2)	(-113,3)	(-117,4)	(228,5)	(-1,2)	(3,8)	
L1D -230>	(110,12)	(217,3)	(4,12)	(-8,20)	(229,35)	(0,20)	(221,19)	(218,7)	(230,8)	(2,4)	(-118,9)	(3,5)	(-117,6)	(6,24)	(-105,1)	(-114,2)	
L1D -229>	(217,5)	(220,11)	(-216,10)	(3,48)	(221,12)	(229,12)	(-103,14)	(-100,2)	(111,3)	(8,6)	(1,7)	(226,25)	(232,47)	(6,11)	(0,13)	(-1,7)	
L1D -228>	(0,8)	(-114,2)	(220,65)	(219,7)	(221,106)	(218,4)	(-104,4)	(228,17)	(225,9)	(-111,4)	(6,5)	(-107,3)	(224,1)	(216,2)	(-118,3)	(-10,6)	
L1D -227>	(227,30)	(3,55)	(224,118)	(1,10)	(4,4)	(89,5)	(230,11)	(6,5)	(-110,8)	(113,3)	(-102,6)	(-108,4)	(223,1)	(-105,38)	(-106,14)	(226,4)	
L1D -226>	(3,99)	(89,12)	(224,73)	(-5,4)	(5,46)	(223,72)	(0,15)	(221,9)	(-108,10)	(1,5)	(219,27)	(6,21)	(227,1)	(226,16)	(-106,33)	(229,8)	
L1D -225>	(0,20)	(-12,2)	(-13,31)	(3,24)	(-117,2)	(6,97)	(-111,3)	(220,2)	(11,2)	(-102,6)	(218,4)	(242,7)	(-106,1)	(221,10)	(116,11)	(228,7)	
L1D -224>	(232,3)	(220,3)	(3,35)	(221,103)	(-107,4)	(219,4)	(224,6)	(223,1)	(-14,3)	(-111,13)	(6,18)	(5,4)	(0,16)	(222,12)	(-110,11)	(-108,3)	
L1D -223>	(221,78)	(223,10)	(-1,2)	(3,17)	(219,6)	(0,5)	(-114,1)	(220,22)	(1,3)	(2,1)	(6,34)	(5,7)	(259,1)	(-5,1)	(-111,2)	(-108,3)	
L1D -222>	(-109,1)	(111,3)	(6,92)	(220,8)	(221,25)	(-118,2)	(219,10)	(-110,5)	(-2,4)	(227,4)	(224,6)	(225,10)	(218,2)	(-117,6)	(3,11)	(222,11)	
L1D -221>	(6,9)	(241,1)	(0,15)	(221,97)	(231,1)	(233,3)	(3,7)	(224,1)	(84,7)	(218,2)	(111,2)	(239,1)	(-111,9)	(242,1)	(-110,4)	(110,3)	
L1D -220>	(0,8)	(221,53)	(220,76)	(114,3)	(233,4)	(113,1)	(279,2)	(273,2)	(267,1)	(-1,2)	(-6,3)	(241,5)	(-8,1)	(6,5)	(242,2)	(262,1)	
L1D -219>	(220,57)	(259,7)	(219,89)	(268,5)	(276,10)	(245,2)	(6,5)	(243,5)	(234,7)	(270,3)	(3,2)	(248,3)	(271,2)	(108,3)	(114,4)	(279,3)	
L1D -218>	(219,84)	(218,88)	(245,19)	(254,4)	(-108,1)	(270,5)	(6,2)	(108,6)	(234,2)	(11,3)	(243,4)	(272,4)	(3,12)	(273,5)	(265,3)	(228,2)	
L1D -217>	(218,86)	(227,6)	(243,2)	(6,19)	(111,34)	(110,48)	(232,3)	(238,3)	(217,41)	(123,23)	(253,4)	(239,3)	(244,3)	(272,3)	(214,1)	(113,9)	
L1D -216>	(217,24)	(122,8)	(6,8)	(216,34)	(114,3)	(0,5)	(110,16)	(111,67)	(11,3)	(5,5)	(214,2)	(1,2)	(-113,2)	(113,37)	(3,3)	(-6,1)	
L1D -215>	(215,102)	(111,26)	(6,21)	(121,28)	(0,7)	(-5,25)	(218,16)	(105,1)	(110,95)	(5,10)	(112,53)	(332,7)	(216,10)	(212,12)	(-11,22)	(113,39)	
L1D -214>	(120,16)	(-6,42)	(110,93)	(5,17)	(215,4)	(111,3)	(13,9)	(1,34)	(213,5)	(0,8)	(-20,9)	(12,11)	(-5,23)	(6,70)	(214,10)	(108,1)	
L1D -213>	(-5,84)	(119,28)	(329,7)	(5,10)	(0,14)	(110,36)	(6,46)	(-6,74)	(213,91)	(111,33)	(11,10)	(7,5)	(3,12)	(210,10)	(334,13)	(17,1)	
L1D -212>	(0,5)	(212,32)	(105,5)	(209,16)	(11,4)	(334,18)	(-6,34)	(219,3)	(110,5)	(-9,5)	(109,13)	(6,74)	(118,52)	(-5,3)	(-11,13)	(5,1)	
L1D -211>	(106,10)	(-6,44)	(117,53)	(-11,25)	(6,68)	(0,4)	(5,12)	(108,4)	(-21,11)	(209,18)	(-1,1)	(4,1)	(208,9)	(211,18)	(-5,12)	(1,4)	
L1D -210>	(116,31)	(110,14)	(107,79)	(0,3)	(-12,3)	(-2,1)	(-6,44)	(334,9)	(6,15)	(11,3)	(-102,2)	(-5,4)	(105,40)	(5,9)	(-11,5)	(210,44)	
L1D -209>	(-6,90)	(6,107)	(0,7)	(-25,11)	(-11,26)	(224,4)	(113,3)	(-5,18)	(1,6)	(4,3)	(11,22)	(213,3)	(-98,3)	(5,23)	(115,6)	(209,10)	
L1D -208>	(-5,26)	(114,116)	(329,3)	(5,25)	(6,59)	(-6,20)	(0,3)	(-118,2)	(-27,10)	(-11,6)	(-10,5)	(328,1)	(105,8)	(345,1)	(211,1)	(-104,1)	
L1D -207>	(-6,84)	(113,125)	(6,56)	(89,2)	(5,22)	(104,2)	(-35,1)	(105,8)	(11,6)	(210,3)	(2,9)	(-106,4)	(207,33)	(-4,5)	(322,2)	(328,2)	
L1D -206>	(6,68)	(5,6)	(113,10)	(0,1)	(208,1)	(206,28)	(112,6)	(3,2)	(110,4)	(-6,11)	(213,1)	(-26,1)	(114,1)	(-16,1)	(-11,1)	(-3,1)	
L1D -205>	(-6,92)	(-102,7)	(202,1)	(0,7)	(-1,7)	(6,15)	(5,26)	(-16,6)	(-5,38)	(204,25)	(1,3)	(-149,12)	(111,12)	(-108,4)	(-38,28)	(-106,3)	
L1D -204>	(207,7)	(6,88)	(-10,7)	(11,12)	(-6,55)	(201,2)	(3,32)	(204,11)	(-16,4)	(-108,6)	(-41,5)	(111,16)	(-5,18)	(5,10)	(203,28)	(-103,14)	
L1D -203>	(114,7)	(203,13)	(6,108)	(110,54)	(-22,6)	(3,42)	(-6,16)	(5,18)	(-102,5)	(0,1)	(109,11)	(-3,4)	(113,6)	(2,2)	(111,3)	(11,2)	
L1D -202>	(-6,108)	(5,17)	(6,35)	(-107,2)	(-4,6)	(202,9)	(-16,18)	(334,5)	(-41,10)	(0,5)	(-5,2)	(205,3)	(-37,1)	(200,40)	(-10,1)	(-28,2)	
L1D -201>	(112,31)	(-5,14)	(111,13)	(318,4)	(-1,5)	(6,119)	(107,1)	(11,39)	(5,47)	(-6,41)	(108,72)	(3,9)	(-3,38)	(201,42)	(-11,21)	(204,29)	
L1D -200>	(6,70)	(111,49)	(-3,4)	(200,10)	(5,9)	(-6,21)	(-38,31)	(107,5)	(-47,11)	(-107,2)	(-11,4)	(-1,3)	(106,4)	(110,3)	(328,1)	(197,9)	
L1D -199>	(5,87)	(-4,12)	(7,61)	(199,13)	(2,4)	(-18,7)	(105,2)	(-37,1)	(110,12)	(-5,2)	(204,1)	(3,2)	(202,1)	(0,2)	(-40,76)	(6,1)	
L1D -198>	(109,35)	(329,8)	(-11,5)	(5,10)	(-41,1)	(198,10)	(-5,65)	(1,5)	(105,82)	(6,28)	(195,19)	(108,15)	(104,3)	(-10,6)	(334,4)	(-6,24)	
L1D -197>	(108,117)	(332,1)	(5,11)	(195,3)	(197,20)	(-4,1)	(6,11)	(2,1)	(-49,1)	(-11,1)	(0,2)	(334,1)	(1,5)	(-6,2)	(-42,8)	(104,24)	
L1D -196>	(107,75)	(-50,1)	(196,7)	(110,50)	(3,37)	(-5,10)	(5,25)	(-6,20)	(111,2)	(1,11)	(-2,5)	(-12,1)	(103,4)	(6,4)	(333,6)	(330,1)	
L1D -195>	(6,6)	(106,9)	(110,78)	(111,54)	(102,67)	(195,21)	(332,8)	(101,3)	(-6,18)	(1,18)	(105,33)	(329,3)	(-3,7)	(5,3)	(3,16)	(334,1)	
L1D -194>	(107,1)	(5,19)	(-6,6)	(194,27)	(105,69)	(1,7)	(111,86)	(0,12)	(108,10)	(332,11)	(329,2)	(6,33)	(331,3)	(-2,8)	(110,8)	(3,11)	
L1D -193>	(329,72)	(193,58)	(-1,19)	(2,14)	(-5,122)	(100,1)	(6,16)	(5,3)	(-3,24)	(334,29)	(-10,15)	(107,11)	(-6,34)	(104,24)	(-46,15)	(331,34)	
L1D -192>	(-6,74)	(192,72)	(102,31)	(5,24)	(103,15)	(-47,15)	(-5,86)	(328,39)	(107,46)	(329,39)	(108,25)	(99,2)	(-3,50)	(-53,7)	(307,1)	(105,2)	
L1D -191>	(191,67)	(-6,48)	(329,5)	(-5,92)	(105,3)	(-10,2)	(102,16)	(322,1)	(5,2)	(309,3)	(-3,6)	(108,3)	(319,2)	(-17,0)	(1,0)	(328,9)	
L1D -190>	(-1,12)	(187,1)	(-6,34)	(-12,1)	(1,2)	(190,3)	(188,7)	(5,24)	(-53,1)	(-49,3)	(-56,8)	(-21,2)	(0,1)	(-57,1)	(1,0)	(1,0)	
L1D -189>	(192,1)	(5,68)	(-6,42)	(1,1)	(-5,12)	(188,0)	(184,0)	(189,1)	(-1,3)	(-54,8)	(-4,0)	(6,0)	(-53,0)	(1,0)	(1,0)	(1,0)	
L1D -188>	(-55,21)	(-6,4)	(5,30)	(190,1)	(-136,2)	(-12,2)	(4,4)	(187,1)	(1,2)	(0,6)	(184,11)	(-1,1)	(-5,1)	(188,1)	(1,0)	(1,0)	
L1D -187>	(-1,10)	(5,38)	(-6,7)	(184,2)	(-56,10)	(-5,7)	(-12,3)	(187,1)	(313,1)	(183,1)	(-52,3)	(4,1)	(-252,1)	(-51,1)	(1,0)	(1,0)	
L1D -186>	(-6,20)	(110,2)	(0,1)	(58,1)	(182,7)	(-2,2)	(2,1)	(5,1)	(-1,1)	(-53,1)	(1,0)	(1,0)	(1,0)	(1,0)	(1,0)	(1,0)	
L1D -185>	(65,2)	(5,3)	(-86,1)	(-6,3)	(-75,8)	(-54,1)	(0,2)	(188,1)	(1,0)	(1,0)	(1,0)	(1,0)	(1,0)	(1,0)	(1,0)	(1,0)	
L1D -184>	(-6,22)	(0,3)	(1,8)	(13,1)	(-114,1)	(181,1)	(142,1)	(-72,1)	(-5,1)	(184,1)	(158,1)	(-13,1)	(1,0)	(1,0)	(1,0)	(1,0)	
L1D -183>	(-1,2)	(-6,13)	(-17,1)	(78,1)	(182,16)	(-2,2)	(58,4)	(0,5)	(48,1)	(412,1)	(2,2)	(5,2)	(1,0)	(1,0)	(1,0)	(1,0)	
L1D -182>	(-6,9)	(1,38)	(-77,1)	(0,1)	(4,3)	(5,1)	(-10,1)	(182,1)	(1,0)	(1,0)	(1,0)	(1,0)	(1,0)	(1,0)	(1,0)	(1,0)	
L1D -181>	(282,2)	(-6,5)	(1,1)	(211,1)	(254,2)	(182,1)	(38,1)	(1,0)	(1,0)	(1,0)	(1,0)	(1,0)	(1,0)	(1,0)	(1,0)	(1,0)	
L1D -180>	(180,2)	(-105,1)	(0,1)	(176,6)	(1,0)	(1,0)	(1,0)	(1,0)	(1,0)	(1,0)	(1,0)	(1,0)	(1,0)	(1,0)	(1,0)	(1,0)	
L1D -179>	(-6,1)	(2,1)	(4,4)	(-8,1)	(305,1)	(179,2)	(43,1)	(-99,1)	(1,0)	(1,0)	(1,0)	(1,0)	(1,0)	(1,0)	(1,0)	(1,0)	
L1D -178>	(1,2)	(-105,3)	(0,1)	(-225,1)	(174,3)	(1,0)	(1,0)	(1,0)	(1,0)	(1,0)	(1,0)	(1,0)	(1,0)	(1,0)	(1,0)	(1,0)	
L1D -177>	(-77,1)	(2,3)	(-81,5)	(1,0)	(1,0)	(1,0)	(1,0)	(1,0)	(1,0)	(1,0)	(1,0)	(1,0)	(1,0)	(1,0)	(1,0)	(1,0)	
L1D -176>	(179,1)	(328,1)	(149,1)	(-7,1)	(172,9)	(-145,1)	(0,2)	(304,1)	(-2,1)	(-81,1)	(29,1)	(1,0)	(1,0)	(1,0)	(1,0)	(1,0)	
L1D -175>	(0,8)	(239,1)	(175,1)	(196,1)	(-28,1)	(32,1)	(10,4)	(111,1)	(1,0)	(1,0)	(1,0)	(1,0)	(1,0)	(1,0)	(1,0)	(1,0)	
L1D -174>	(-5,1)	(60,1)	(1,0)	(1,0)	(1,0)	(1,0)	(1,0)	(1,0)	(1,0)	(1,0)	(1,0)	(1,0)	(1,0)	(1,0)	(1,0)	(1,0)	
L1D -173>	(173,1)	(-4,1)	(61,1)	(0,1)	(29,1)	(176,1)	(2,6)	(172,1)	(1,0)	(1,0)	(1,0)	(1,0)	(1,0)	(1,0)	(1,0)	(1,0)	
L1D -172>	(45,1)	(24,1)	(28,1)	(131,1)	(176,10)	(48,7)	(172,3)	(0,1)	(-128,1)	(1,0)	(1,0)	(1,0)	(1,0)	(1,0)	(1,0)	(1,0)	
L1D -171>	(-127,7)	(0,28)	(251,1)	(-232,5)	(-157,1)	(-101,1)	(-131,1)	(235,1)	(3,1)	(298,1)	(172,27)	(-16,1)	(1,0)	(1,0)	(1,0)	(1,0)	
L1D -170>	(0,4)	(170,3)	(306,1)	(166,1)	(-129,1)	(-265,1)	(2,1)	(1,0)	(1,0)	(1,0)	(1,0)	(1,0)	(1,0)	(1,0)	(1,0)	(1,0)	
L1D -169>	(1,0)	(1,0)	(1,0)	(1,0)	(1,0)	(1,0)	(1,0)	(1,0)	(1,0)	(1,0)	(1,0)	(1,0)	(1,0)	(1,0)	(1,0)	(1,0)	
L1D -168>	(1,68)	(-3,1)	(0,4)	(-138,1)	(-266,1)	(1,0)	(1,0)	(1,0)	(1,0)	(1,0)	(1,0)	(1,0)	(1,0)	(1,0)	(1,0)	(1,0)	
L1D -167>	(4,1)	(269,1)	(256,1)	(1,12)	(347,1)	(0,3)	(167,10)	(37,1)	(1,0)	(1,0)	(1,0)	(1,0)	(1,0)	(1,0)	(1,0)	(1,0)	
L1D -166>	(1,5)	(1,0)	(1,0)	(1,0)	(1,0)	(1,0)	(1,0)	(1,0)	(1,0)	(1,0)	(1,0)	(1,0)	(1,0)	(1,0)	(1,0)	(1,0)	
L1D -165>	(254,3)	(0,7)	(-3,1)	(-14,9)	(-8,1)	(139,1)	(-192,1)	(1,0)	(1,0)	(1,0)	(1,0)	(1,0)	(1,0)	(1,0)	(1,0)	(1,0)	
L1D -164>	(265,1)	(1,0)	(1,0)	(1,0)	(1,0)	(1,0)	(1,0)	(1,0)	(1,0)	(1,0)	(1,0)	(1,0)	(1,0)	(1,0)	(1,0)	(1,0)	
L1D -163>	(163,1)	(0,1)	(290,1)	(1,0)	(1,0)	(1,0)	(1,0)	(1,0)	(1,0)	(1,0)	(1,0)	(1,0)	(1,0)	(1,0)	(1,0)	(1,0)	
L1D -162>	(298,2)	(-45,1)	(-1,1)	(0,3)	(10,1)	(40,1)	(1,0)	(1,0)	(1,0)	(1,0)	(1,0)	(1,0)	(1,0)	(1,0)	(1,0)	(1,0)	
L1D -161>	(45,1)	(1,0)	(1,0)	(1,0)	(1,0)	(1,0)	(1,0)	(1,0)	(1,0)	(1,0)	(1,0)	(1,0)	(1,0)	(1,0)	(1,0)	(1,0)	
L1D -160>	(43,1)	(-125,2)	(3,7)	(0,7)	(32,1)	(1,0)	(1,0)	(1,0)	(1,0)	(1,0)	(1,0)	(1,0)	(1,0)	(1,0)	(1,0)	(1,0)	
L1D -159>	(4,4)	(1,0)	(1,0)	(1,0)	(1,0)	(1,0)	(1,0)	(1,0)	(1,0)	(1,0)	(1,0)	(1,0)	(1,0)	(1,0)	(1,0)	(1,0)	
L1D -158>	(-125,2)	(1,1)	(-8,2)	(-1,1)	(0,2)	(1,0)	(1,0)	(1,0)	(1,0)	(1,0)	(1,0)	(1,0)	(1,0)	(1,0)	(1,0)	(1,0)	
L1D -157>	(328,1)	(-2,3)	(-1,3)	(0,1)	(-8,1)	(1,0)	(1,0)	(1,0)	(1,0)	(1,0)	(1,0)	(1,0)	(1,0)	(1,0)	(1,0)	(1,0)	
L1D -156>	(-8,33)	(2,10)	(-1,3)	(0,3)	(156,1)	(1,0)	(1,0)	(1,0)	(1,0)	(1,0)	(1,0)	(1,0)	(1,0)	(1,0)	(1,0)	(1,0)	
L1D -155>	(-1,17)	(2,2)	(-8,95)	(-3,3)	(187,1)	(0,4)	(123,1)	(-2,1)	(283,1)	(150,1)	(1,0)	(1,0)	(1,0)	(1,0)	(1,0)	(1,0)	
L1D -154>	(1,5)	(0,4)	(-8,2)	(1,0)	(1,0)	(1,0)	(1,0)	(1,0)	(1,0)	(1,0)	(1,0)	(1,0)	(1,0)	(1,0)	(1,0)	(1,0)	
L1D -153>	(282,1)	(0,8)	(-1,1)	(-8,5)	(153,1)	(1,0)	(1,0)	(1,0)	(1,0)	(1,0)	(1,0)	(1,0)	(1,0)	(1,0)	(1,0)	(1,0)	
L1D -152>	(1,1)	(24,1)	(-1,1)	(1,0)	(1,0)	(1,0)	(1,0)	(1,0)	(1,0)	(1,0)	(1,0)	(1,0)	(1,0)	(1,0)	(1,0)	(1,0)	
L1D -151>	(282,1)	(271,1)	(0,3)	(267,1)	(1,0)	(1,0)	(1,0)	(1,0)	(1,0)	(1,0)	(1,0)	(1,0)	(1,0)	(1,0)	(1,0)	(1,0)	
L1D -150>	(150,10)	(-135,1)	(3,1)	(299,2)	(0,15)	(-139,1)	(-137,4)	(264,1)	(-140,1)	(1,12)	(163,1)	(-12,1)	(-10,2)	(-286,1)	(1,0)	(1,0)	
L1D -149>	(0,42)	(1,92)	(-123,5)	(149,5)	(354,4)	(-160,1)	(-115,3)	(-150,2)	(-4,6)	(-290,1)	(-109,1)	(259,1)	(1,0)	(1,0)	(1,0)	(1,0)	
L1D -148>	(0,4)	(144,6)	(148,1)	(146,22)	(1,15)	(149,1)	(-1,2)	(1,0)	(1,0)	(1,0)	(1,0)	(1,0)	(1,0)	(1,0)	(1,0)	(1,0)	
L1D -147>	(147,1)	(24,1)	(0,2)	(293,1)	(148,1)	(32,1)	(1,1)	(219,2)	(296,1)	(-2,1)	(1,0)	(1,0)	(1,0)	(1,0)	(1,0)	(1,0)	
L1D -146>	(421,11)	(154,8)	(1,9)	(147,47)	(354,6)	(149,12)	(146,6)	(0,12)	(72,11)	(-1,9)	(3,2)	(1,0)	(1,0)	(1,0)	(1,0)	(1,0)	
L1D -145>	(40,1)	(2,3)	(445,1)	(1,2)	(-1,1)	(1,0)	(1,0)	(1,0)	(1,0)	(1,0)	(1,0)	(1,0)	(1,0)	(1,0)	(1,0)	(1,0)	
L1D -144>	(138,2)	(0,6)	(136,1)	(-16,5)	(144,4)	(102,1)	(192,1)	(272,1)	(148,5)	(-128,2)	(-184,1)	(-155,1)	(1,0)	(1,0)	(1,0)	(1,0)	
L1D -143>	(0,64)	(137,1)	(135,1)	(1,1)	(-1,53)	(144,11)	(420,10)	(1,0)	(1,0)	(1,0)	(1,0)	(1,0)	(1,0)	(1,0)	(1,0)	(1,0)	
L1D -142>	(35,1)	(140,1)	(1,1)	(142,1)	(3,1)	(1,0)	(1,0)	(1,0)	(1,0)	(1,0)	(1,0)	(1,0)	(1,0)	(1,0)	(1,0)	(1,0)	
L1D -141>	(141,3)	(-191,5)	(47,1)	(143,2)	(-149,1)	(370,1)	(101,1)	(280,1)	(0,5)	(133,1)	(1,0)	(1,0)	(1,0)	(1,0)	(1,0)	(1,0)	
L1D -140>	(269,1)	(415,1)	(-1,1)	(0,3)	(143,1)	(-149,3)	(-192,4)	(303,1)	(140,1)	(108,1)	(-255,1)	(260,1)	(-4,1)	(-191,3)	(1,0)	(1,0)	
L1D -139>	(1,3)	(139,2)	(0,4)	(-149,2)	(3,1)	(-329,1)	(141,1)	(-192,2)	(129,1)	(123,1)	(11,1)	(37,1)	(1,0)	(1,0)	(1,0)	(1,0)	
L1D -138>	(-93,8)	(-94,6)	(0,12)	(138,3)	(-215,2)	(-193,1)	(-85,2)	(135,73)	(268,1)	(-149,3)	(136,1)	(-84,4)	(84,1)	(-89,6)	(-197,2)	(263,1)	
L1D -137>	(86,6)	(287,2)	(-149,5)	(134,5)	(-194,2)	(-129,1)	(0,5)	(140,117)	(-93,10)	(139,55)	(265,1)	(138,1)	(-104,1)	(-192,6)	(137,3)	(164,1)	
L1D -136>	(-93,13)	(-85,5)	(-195,11)	(-42,2)	(0,17)	(136,4)	(-89,3)	(1,6)	(-198,1)	(133,2)	(139,62)	(16,1)	(134,12)	(175,1)	(-298,1)	(-207,1)	
L1D -135>	(-93,19)	(0,7)	(141,2)	(219,20)	(434,1)	(137,67)	(220,1)	(298,1)	(274,3)	(-94,2)	(218,2)	(138,4)	(-89,9)	(140,2)	(-201,2)	(-97,1)	
L1D -134>	(-193,2)	(218,59)	(-93,12)	(-89,11)	(1,6)	(0,3)	(219,20)	(272,7)	(273,4)	(140,1)	(-198,6)	(372,1)	(131,27)	(-24,1)	(135,2)	(-84,2)	
L1D -133>	(217,60)	(126,1)	(141,1)	(113,2)	(133,8)	(219,12)	(111,1)	(218,116)	(130,1)	(271,2)	(30,2)	(0,10)	(272,1)	(-201,1)	(405,1)	(139,1)	
L1D -132>	(217,116)	(-127,1)	(132,1)	(142,1)	(110,1)	(218,44)	(216,7)	(219,4)	(269,1)	(111,3)	(-13,1)	(0,1)	(134,2)	(129,1)	(135,1)	(270,1)	
L1D -131>	(3,2)	(-94,2)	(-127,2)	(0,3)	(-107,4)	(-93,7)	(216,18)	(217,87)	(128,3)	(111,1)	(-13,32)	(218,20)	(219,5)	(-134,1)	(131,4)	(110,1)	
L1D -130>	(218,47)	(216,114)	(217,31)	(130,6)	(0,5)	(215,1)	(110,8)	(219,5)	(127,1)	(135,1)	(358,2)	(131,1)	(220,2)	(265,1)	(292,1)	(111,1)	
L1D -129>	(-149,60)	(438,1)	(0,3)	(218,38)	(254,2)	(217,25)	(216,1)	(476,2)	(131,1)	(134,3)	(288,1)	(123,1)	(132,2)	(-108,1)	(92,1)	(110,1)	
L1D -128>	(218,3)	(-203,3)	(-93,21)	(216,46)	(0,53)	(125,107)	(128,21)	(217,27)	(-105,2)	(219,14)	(-106,1)	(122,1)	(-129,2)	(2,2)	(-3,1)	(-108,2)	
L1D -127>	(127,11)	(132,37)	(0,18)	(218,81)	(217,15)	(113,7)	(129,3)	(-105,9)	(-204,6)	(110,2)	(-11,2)	(259,2)	(-30,1)	(298,4)	(119,1)	(216,3)	
L1D -126>	(0,4)	(3,4)	(220,96)	(217,7)	(136,1)	(123,7)	(-2,1)	(1,1)	(349,2)	(127,7)	(132,3)	(336,2)	(283,0)	(218,0)	(129,0)	(110,0)	
L1D -125>	(126,68)	(219,63)	(216,14)	(127,17)	(217,2)	(0,8)	(254,1)	(3,11)	(125,5)	(-2,4)	(218,7)	(120,1)	(110,3)	(298,1)	(263,2)	(107,1)	
L1D -124>	(218,84)	(-149,8)	(216,48)	(121,6)	(3,4)	(107,6)	(0,1)	(119,2)	(332,1)	(-93,1)	(128,10)	(1,4)	(110,6)	(125,39)	(36,19)	(217,45)	
L1D -123>	(123,65)	(331,1)	(-2,2)	(1,1)	(3,11)	(110,48)	(111,7)	(-172,0)	(2,0)	(0,8)	(217,9)	(337,0)	(114,2)	(112,3)	(334,3)	(121,3)	
L1D -122>	(216,34)	(122,119)	(111,55)	(1,5)	(125,49)	(2,40)	(0,27)	(4,25)	(50,1)	(5,7)	(110,20)	(113,8)	(3,19)	(114,6)	(334,3)	(119,8)	
L1D -121>	(218,2)	(215,50)	(-5,7)	(121,94)	(124,4)	(-94,4)	(1,7)	(119,13)	(-2,3)	(111,24)	(110,8)	(118,14)	(122,15)	(-3,6)	(219,11)	(123,7)	
L1D -120>	(120,83)	(0,7)	(332,2)	(214,16)	(110,13)	(2,5)	(-5,6)	(111,17)	(-2,2)	(3,6)	(6,2)	(117,1)	(-6,20)	(107,14)	(328,9)	(334,10)	
L1D -119>	(67,1)	(-213,10)	(213,42)	(5,40)	(119,109)	(218,26)	(113,7)	(0,22)	(3,14)	(110,72)	(-212,16)	(115,3)	(116,12)	(111,35)	(217,16)	(-103,17)	
L1D -118>	(118,120)	(115,3)	(335,3)	(329,10)	(116,3)	(326,8)	(212,20)	(218,2)	(217,8)	(120,1)	(-5,5)	(105,16)	(117,5)	(346,1)	(-3,3)	(330,3)	
L1D -117>	(117,76)	(-2,7)	(-3,8)	(3,7)	(0,5)	(111,6)	(328,3)	(108,4)	(346,2)	(114,9)	(334,3)	(219,1)	(218,8)	(105,2)	(113,5)	(-6,3)	
L1D -116>	(116,61)	(220,1)	(111,19)	(3,55)	(115,12)	(107,28)	(2,19)	(217,26)	(219,54)	(119,10)	(113,88)	(110,80)	(210,19)	(112,10)	(108,12)	(218,12)	
L1D -115>	(209,26)	(-105,24)	(218,97)	(116,56)	(3,38)	(0,39)	(115,125)	(2,5)	(217,29)	(112,107)	(216,29)	(107,4)	(105,6)	(113,68)	(332,10)	(110,1)	
L1D -114>	(-6,17)	(218,18)	(114,85)	(3,26)	(0,9)	(219,6)	(110,37)	(-1,1)	(111,32)	(108,20)	(105,8)	(198,6)	(329,14)	(-3,8)	(208,18)	(-5,6)	
L1D -113>	(119,6)	(113,90)	(332,1)	(2,12)	(123,4)	(110,59)	(105,12)	(207,9)	(108,26)	(217,12)	(111,31)	(218,13)	(-3,8)	(3,13)	(107,7)	(106,3)	
L1D -112>	(2,10)	(218,20)	(112,77)	(-5,101)	(113,40)	(334,4)	(108,31)	(110,43)	(217,19)	(-115,1)	(111,4)	(-6,4)	(3,15)	(1,5)	(216,11)	(0,4)	
L1D -111>	(329,15)	(111,87)	(216,22)	(3,12)	(442,1)	(108,18)	(332,13)	(107,5)	(-2,9)	(0,28)	(110,10)	(-6,12)	(105,9)	(195,4)	(-5,25)	(-3,9)	
L1D -110>	(334,7)	(105,1)	(110,65)	(111,11)	(331,15)	(113,5)	(102,2)	(328,7)	(329,4)	(116,7)	(3,7)	(2,4)	(217,5)	(0,8)	(-3,10)	(107,6)	
L1D -109>	(-5,17)	(111,22)	(109,112)	(329,7)	(198,12)	(193,27)	(3,28)	(212,21)	(217,64)	(120,34)	(105,19)	(113,22)	(216,69)	(0,20)	(230,1)	(2,16)	
L1D -108>	(193,8)	(108,86)	(118,11)	(111,19)	(191,8)	(121,4)	(113,11)	(0,1)	(110,35)	(117,6)	(105,16)	(192,18)	(120,11)	(-6,67)	(-5,47)	(114,18)	
L1D -107>	(107,95)	(192,34)	(110,99)	(111,73)	(193,76)	(331,10)	(200,42)	(-108,15)	(108,1)	(0,7)	(13,20)	(212,26)	(-3,7)	(3,14)	(113,34)	(120,40)	
L1D -106>	(-5,13)	(106,72)	(117,33)	(-110,1)	(0,22)	(12,18)	(329,5)	(3,47)	(102,50)	(-109,43)	(111,47)	(-6,18)	(-111,18)	(195,52)	(110,30)	(-2,3)	
L1D -105>	(0,20)	(-111,32)	(-3,1)	(-2,10)	(109,10)	(221,34)	(-5,97)	(114,117)	(110,32)	(111,87)	(194,19)	(198,12)	(105,111)	(-6,9)	(1,6)	(113,5)	
L1D -104>	(-5,9)	(193,116)	(331,6)	(-112,14)	(218,22)	(-6,11)	(2,5)	(113,51)	(110,5)	(108,35)	(104,83)	(-111,13)	(-113,20)	(221,1)	(10,17)	(-108,9)	
L1D -103>	(-112,7)	(-111,2)	(219,63)	(192,95)	(-109,8)	(221,4)	(227,2)	(-113,17)	(225,4)	(-110,4)	(218,20)	(-114,8)	(222,3)	(-5,27)	(103,5)	(-6,6)	
L1D -102>	(191,92)	(102,13)	(-6,10)	(110,29)	(-3,8)	(-5,81)	(195,2)	(-113,6)	(-2,1)	(111,23)	(113,3)	(192,22)	(218,4)	(8,2)	(-114,14)	(-116,5)	
L1D -101>	(102,19)	(68,94)	(1,5)	(-116,27)	(105,10)	(0,12)	(101,42)	(111,27)	(107,12)	(16,2)	(-3,11)	(-111,1)	(60,1)	(-115,27)	(103,32)	(108,4)	
L1D -100>	(221,1)	(193,119)	(121,3)	(1,7)	(0,43)	(-5,50)	(-115,31)	(110,12)	(100,13)	(114,7)	(-108,14)	(-110,7)	(-116,117)	(6,39)	(-117,66)	(218,8)	
L1D -99>	(-113,11)	(192,122)	(218,4)	(99,22)	(101,4)	(-114,16)	(223,5)	(107,1)	(100,23)	(113,9)	(111,3)	(-5,21)	(103,5)	(0,2)	(-118,2)	(-116,7)	
L1D -98>	(-119,61)	(124,3)	(-118,50)	(-3,6)	(0,4)	(100,2)	(191,28)	(130,1)	(192,20)	(-120,20)	(-117,10)	(99,12)	(105,2)	(-116,2)	(62,1)	(-114,2)	
L1D -97>	(125,3)	(97,3)	(101,4)	(130,2)	(0,3)	(221,3)	(-122,1)	(-121,8)	(1,45)	(-120,42)	(99,2)	(-119,38)	(-118,14)	(-115,1)	(98,3)	(-113,1)	
L1D -96>	(97,8)	(1,17)	(0,15)	(96,5)	(98,10)	(-119,4)	(101,26)	(-120,5)	(-121,4)	(113,5)	(224,7)	(282,4)	(-110,6)	(99,18)	(-122,1)	(110,6)	
L1D -95>	(1,21)	(108,9)	(403,1)	(95,1)	(105,1)	(1,0)	(1,0)	(1,0)	(1,0)	(1,0)	(1,0)	(1,0)	(1,0)	(1,0)	(1,0)	(1,0)	
L1D -94>	(-118,32)	(210,22)	(-115,6)	(-121,25)	(218,45)	(-120,17)	(225,2)	(209,46)	(-119,26)	(211,104)	(208,35)	(-110,10)	(-116,36)	(217,39)	(94,29)	(-123,15)	
L1D -93>	(231,2)	(-108,86)	(-125,2)	(-100,9)	(93,9)	(-111,3)	(-123,2)	(-110,2)	(107,1)	(-2,12)	(-116,1)	(-113,1)	(-107,1)	(221,6)	(-124,3)	(-105,2)	
L1D -92>	(0,104)	(335,3)	(111,4)	(110,1)	(88,4)	(137,1)	(130,3)	(1,10)	(89,49)	(-167,1)	(-124,75)	(-165,3)	(106,2)	(-125,4)	(-123,3)	(93,6)	
L1D -91>	(-124,84)	(0,15)	(111,6)	(1,2)	(12,1)	(16,6)	(131,1)	(105,2)	(92,2)	(328,1)	(-125,4)	(-126,2)	(106,1)	(31,1)	(1,0)	(1,0)	
L1D -90>	(-127,83)	(215,1)	(-108,60)	(-111,10)	(-126,58)	(-125,13)	(6,59)	(0,13)	(-128,17)	(-105,25)	(221,7)	(226,3)	(219,5)	(-110,3)	(-114,6)	(5,6)	
L1D -89>	(203,1)	(-112,95)	(-104,78)	(204,3)	(5,2)	(-108,39)	(89,83)	(223,26)	(4,2)	(220,108)	(226,5)	(-4,17)	(-114,3)	(227,27)	(-111,28)	(-102,6)	
L1D -88>	(0,38)	(-129,40)	(134,1)	(-128,24)	(16,30)	(-130,6)	(-127,3)	(111,3)	(-3,1)	(-251,1)	(-110,3)	(219,8)	(-113,1)	(-5,1)	(1,0)	(1,0)	
L1D -87>	(0,25)	(1,4)	(-116,7)	(-2,1)	(221,14)	(135,2)	(-111,3)	(-131,4)	(88,46)	(-128,41)	(-129,22)	(16,3)	(87,18)	(-6,16)	(-114,3)	(-130,43)	
L1D -86>	(0,34)	(282,2)	(-130,31)	(141,3)	(86,53)	(207,2)	(-110,14)	(-131,21)	(-105,17)	(-132,4)	(-111,5)	(224,1)	(222,2)	(200,2)	(210,1)	(203,2)	
L1D -85>	(0,3)	(-131,35)	(-107,5)	(-116,3)	(-108,72)	(-132,18)	(-113,7)	(-133,5)	(219,59)	(-130,43)	(-8,7)	(218,3)	(202,2)	(-111,7)	(85,2)	(221,16)	
L1D -84>	(-131,16)	(-133,114)	(-107,2)	(85,5)	(0,22)	(84,8)	(220,14)	(218,97)	(-9,8)	(-110,5)	(-111,18)	(-109,75)	(-108,35)	(-132,113)	(-134,24)	(-114,27)	
L1D -83>	(0,28)	(138,2)	(144,2)	(-134,63)	(-133,59)	(139,3)	(-108,6)	(221,6)	(-111,41)	(1,30)	(84,11)	(271,12)	(-135,21)	(55,1)	(-113,2)	(-132,7)	
L1D -82>	(-26,1)	(-256,1)	(26,1)	(0,1)	(1,0)	(1,0)	(1,0)	(1,0)	(1,0)	(1,0)	(1,0)	(1,0)	(1,0)	(1,0)	(1,0)	(1,0)	
L1D -81>	(-256,3)	(0,2)	(-175,1)	(253,1)	(-13,5)	(1,0)	(1,0)	(1,0)	(1,0)	(1,0)	(1,0)	(1,0)	(1,0)	(1,0)	(1,0)	(1,0)	
L1D -80>	(0,4)	(1,1)	(-75,1)	(-2,1)	(81,1)	(1,0)	(1,0)	(1,0)	(1,0)	(1,0)	(1,0)	(1,0)	(1,0)	(1,0)	(1,0)	(1,0)	
L1D -79>	(0,21)	(15,4)	(34,1)	(-136,1)	(79,6)	(8,1)	(-1,1)	(120,2)	(47,1)	(1,1)	(1,0)	(1,0)	(1,0)	(1,0)	(1,0)	(1,0)	
L1D -78>	(2,5)	(1,6)	(4,1)	(-48,1)	(-6,7)	(-2,1)	(1,0)	(1,0)	(1,0)	(1,0)	(1,0)	(1,0)	(1,0)	(1,0)	(1,0)	(1,0)	
L1D -77>	(77,2)	(109,1)	(-256,1)	(0,1)	(141,1)	(-32,1)	(1,0)	(1,0)	(1,0)	(1,0)	(1,0)	(1,0)	(1,0)	(1,0)	(1,0)	(1,0)	
L1D -76>	(73,46)	(4,2)	(180,1)	(-3,1)	(-181,2)	(-33,1)	(0,11)	(-184,1)	(2,1)	(76,1)	(64,1)	(1,0)	(1,0)	(1,0)	(1,0)	(1,0)	
L1D -75>	(2,9)	(18,66)	(403,2)	(133,26)	(105,1)	(0,19)	(232,1)	(100,1)	(263,23)	(1,5)	(4,2)	(-32,1)	(73,4)	(-8,1)	(-1,1)	(72,1)	
L1D -74>	(259,12)	(74,62)	(2,3)	(75,49)	(-1,1)	(103,1)	(1,3)	(109,1)	(112,8)	(80,2)	(84,29)	(-6,13)	(72,14)	(-2,9)	(-4,1)	(-102,1)	
L1D -73>	(1,69)	(-1,1)	(2,16)	(4,47)	(131,4)	(-183,1)	(73,1)	(64,1)	(284,1)	(280,1)	(0,4)	(1,0)	(1,0)	(1,0)	(1,0)	(1,0)	
L1D -72>	(47,1)	(0,8)	(1,89)	(-1,7)	(-2,5)	(257,20)	(253,0)	(7,0)	(72,1)	(18,0)	(1,0)	(1,0)	(1,0)	(1,0)	(1,0)	(1,0)	
L1D -71>	(0,7)	(1,92)	(167,1)	(-119,0)	(-1,8)	(71,0)	(72,0)	(1,0)	(1,0)	(1,0)	(1,0)	(1,0)	(1,0)	(1,0)	(1,0)	(1,0)	
L1D -70>	(1,10)	(0,1)	(-112,1)	(-4,3)	(-13,8)	(1,0)	(1,0)	(1,0)	(1,0)	(1,0)	(1,0)	(1,0)	(1,0)	(1,0)	(1,0)	(1,0)	
L1D -69>	(0,30)	(74,28)	(-10,1)	(16,1)	(-2,1)	(-256,1)	(24,1)	(1,0)	(1,0)	(1,0)	(1,0)	(1,0)	(1,0)	(1,0)	(1,0)	(1,0)	
L1D -68>	(75,66)	(-5,1)	(69,1)	(1,14)	(17,26)	(32,3)	(0,2)	(24,1)	(68,1)	(-255,1)	(1,0)	(1,0)	(1,0)	(1,0)	(1,0)	(1,0)	
L1D -67>	(69,1)	(9,1)	(0,8)	(24,1)	(1,5)	(67,1)	(74,5)	(1,0)	(1,0)	(1,0)	(1,0)	(1,0)	(1,0)	(1,0)	(1,0)	(1,0)	
L1D -66>	(1,46)	(-8,44)	(100,1)	(0,3)	(-49,1)	(10,1)	(-1,1)	(1,0)	(1,0)	(1,0)	(1,0)	(1,0)	(1,0)	(1,0)	(1,0)	(1,0)	
L1D -65>	(1,77)	(-8,5)	(0,1)	(63,1)	(205,0)	(204,0)	(-4,0)	(1,0)	(1,0)	(1,0)	(1,0)	(1,0)	(1,0)	(1,0)	(1,0)	(1,0)	
L1D -64>	(1,113)	(0,6)	(-231,1)	(29,1)	(109,1)	(64,2)	(459,0)	(61,15)	(102,0)	(63,0)	(72,0)	(-15,0)	(19,0)	(-193,0)	(32,1)	(1,0)	
L1D -63>	(1,15)	(119,1)	(10,1)	(3,1)	(0,4)	(15,1)	(-1,1)	(65,1)	(1,0)	(1,0)	(1,0)	(1,0)	(1,0)	(1,0)	(1,0)	(1,0)	
L1D -62>	(0,84)	(1,28)	(197,1)	(50,1)	(-2,2)	(127,1)	(-219,2)	(79,1)	(4,1)	(78,1)	(67,1)	(16,1)	(66,1)	(209,1)	(1,0)	(1,0)	
L1D -61>	(-217,2)	(1,78)	(60,0)	(47,0)	(49,0)	(-219,5)	(55,0)	(-218,5)	(0,9)	(-16,0)	(69,1)	(25,0)	(-216,0)	(16,0)	(-220,0)	(61,0)	
L1D -60>	(-218,16)	(1,113)	(47,1)	(-84,5)	(0,75)	(49,4)	(60,57)	(15,2)	(43,3)	(40,1)	(48,11)	(46,2)	(7,3)	(-219,8)	(2,1)	(-220,2)	
L1D -59>	(-218,6)	(-216,3)	(-8,25)	(1,98)	(-220,3)	(47,3)	(-219,11)	(0,8)	(48,11)	(43,1)	(-217,2)	(-84,11)	(21,1)	(11,1)	(15,1)	(19,1)	
L1D -58>	(-217,5)	(-220,5)	(0,77)	(1,110)	(-8,125)	(40,6)	(-218,36)	(46,2)	(-7,15)	(-219,14)	(-216,2)	(49,2)	(47,22)	(11,2)	(247,2)	(51,1)	
L1D -57>	(-220,5)	(2,7)	(46,30)	(57,1)	(-218,49)	(-219,5)	(-85,3)	(0,10)	(-1,1)	(41,2)	(1,44)	(-217,12)	(47,1)	(49,1)	(-221,1)	(51,2)	
L1D -56>	(-17,1)	(-83,2)	(6,3)	(39,1)	(1,105)	(0,14)	(-11,1)	(-106,1)	(61,19)	(41,9)	(108,1)	(109,1)	(93,1)	(47,1)	(43,1)	(-219,3)	
L1D -55>	(-1,29)	(1,74)	(-8,1)	(-83,16)	(0,17)	(2,4)	(-216,1)	(60,2)	(49,2)	(48,1)	(4,0)	(8,1)	(43,1)	(-217,1)	(-219,2)	(-220,2)	
L1D -54>	(-18,32)	(43,9)	(1,74)	(59,9)	(49,27)	(46,6)	(-219,11)	(-218,9)	(-217,3)	(-216,9)	(3,1)	(-12,2)	(0,19)	(-84,71)	(2,5)	(48,4)	
L1D -53>	(1,94)	(0,39)	(53,1)	(-17,1)	(-84,22)	(2,1)	(48,17)	(43,1)	(-217,1)	(58,7)	(-220,1)	(-1,2)	(-218,2)	(-12,4)	(-3,58)	(-18,38)	
L1D -52>	(1,102)	(0,8)	(45,9)	(-217,3)	(-85,36)	(-219,3)	(47,8)	(247,32)	(14,2)	(49,2)	(-218,17)	(8,3)	(-216,1)	(41,4)	(46,2)	(-220,3)	
L1D -51>	(0,34)	(-85,108)	(6,6)	(44,38)	(46,69)	(51,18)	(2,2)	(-217,2)	(1,38)	(41,5)	(7,1)	(35,1)	(40,13)	(-88,1)	(-219,4)	(49,4)	
L1D -50>	(1,79)	(49,1)	(0,19)	(-219,17)	(41,8)	(48,0)	(61,1)	(-218,21)	(6,2)	(-220,9)	(-5,0)	(45,1)	(16,0)	(-217,12)	(3,0)	(-216,1)	
L1D -49>	(1,126)	(-219,42)	(49,21)	(-1,14)	(-86,57)	(0,80)	(14,4)	(-217,10)	(60,9)	(7,8)	(6,4)	(2,1)	(-220,14)	(-218,90)	(246,12)	(-221,3)	
L1D -48>	(1,103)	(-218,52)	(-219,32)	(46,1)	(-220,27)	(-217,16)	(-1,23)	(0,25)	(43,1)	(-216,4)	(328,3)	(72,1)	(48,2)	(5,1)	(4,1)	(30,1)	
L1D -47>	(245,79)	(-217,4)	(1,91)	(-87,34)	(0,65)	(5,2)	(45,58)	(-218,11)	(-18,65)	(20,3)	(47,11)	(42,6)	(36,3)	(49,1)	(-219,7)	(43,3)	
L1D -46>	(0,29)	(-219,58)	(-220,27)	(4,95)	(44,12)	(-12,17)	(-218,85)	(-91,7)	(-217,25)	(-1,11)	(1,102)	(35,39)	(5,1)	(-18,103)	(83,2)	(-88,73)	
L1D -45>	(8,5)	(40,13)	(52,29)	(6,13)	(41,2)	(21,1)	(1,23)	(0,18)	(5,6)	(-1,3)	(46,3)	(45,5)	(2,2)	(-5,1)	(-6,6)	(35,3)	
L1D -44>	(6,73)	(0,27)	(-92,1)	(-6,2)	(51,9)	(1,19)	(243,4)	(-220,1)	(5,3)	(-89,2)	(-218,1)	(-217,1)	(-4,1)	(44,6)	(38,1)	(11,3)	
L1D -43>	(5,102)	(41,57)	(0,70)	(-218,13)	(45,10)	(-8,4)	(-6,5)	(-217,3)	(4,1)	(2,3)	(11,11)	(47,2)	(6,4)	(46,1)	(43,8)	(-219,57)	
L1D -42>	(1,31)	(0,3)	(42,6)	(5,1)	(-11,1)	(45,108)	(-8,1)	(-218,2)	(-90,7)	(41,0)	(-219,0)	(242,12)	(-215,0)	(-220,1)	(2,0)	(-217,0)	
L1D -41>	(1,19)	(0,119)	(-90,18)	(18,2)	(-219,5)	(30,1)	(-1,62)	(-220,5)	(2,10)	(-217,7)	(23,1)	(42,4)	(35,3)	(-218,26)	(-91,1)	(242,2)	
L1D -40>	(35,21)	(-91,89)	(-219,89)	(-2,1)	(-220,4)	(40,15)	(6,2)	(49,4)	(-218,8)	(0,18)	(28,1)	(-1,5)	(53,1)	(42,1)	(1,12)	(14,2)	
L1D -39>	(1,15)	(-12,1)	(6,21)	(0,9)	(-1,1)	(28,2)	(-16,1)	(12,1)	(29,1)	(34,3)	(19,22)	(-5,6)	(241,17)	(-8,1)	(-217,1)	(40,2)	
L1D -38>	(6,7)	(1,67)	(36,1)	(-242,0)	(-38,0)	(38,1)	(0,15)	(-92,18)	(55,0)	(5,9)	(-6,0)	(-4,0)	(2,0)	(1,0)	(1,0)	(1,0)	
L1D -37>	(240,1)	(1,105)	(-6,2)	(0,20)	(-218,7)	(-46,1)	(19,6)	(-220,3)	(37,2)	(6,3)	(-217,3)	(11,1)	(-11,1)	(128,1)	(-219,5)	(5,2)	
L1D -36>	(1,43)	(38,106)	(36,14)	(-73,1)	(-220,7)	(0,7)	(5,1)	(-219,6)	(-93,4)	(-57,1)	(-6,1)	(6,1)	(239,1)	(-218,13)	(-4,0)	(-217,2)	
L1D -35>	(-218,9)	(0,22)	(35,103)	(1,19)	(-219,5)	(253,3)	(-6,3)	(6,3)	(30,2)	(29,3)	(-220,1)	(34,5)	(40,1)	(21,2)	(15,1)	(4,2)	
L1D -34>	(34,104)	(33,68)	(1,43)	(40,1)	(0,18)	(-1,2)	(60,1)	(35,1)	(3,1)	(6,1)	(24,1)	(-217,1)	(29,2)	(-121,0)	(-4,1)	(-30,0)	
L1D -33>	(-219,2)	(-218,2)	(33,102)	(34,38)	(2,13)	(1,55)	(0,23)	(-217,2)	(-1,3)	(7,1)	(35,1)	(4,0)	(-220,2)	(25,0)	(16,0)	(1,0)	
L1D -32>	(-1,18)	(0,69)	(16,3)	(1,62)	(5,3)	(32,11)	(14,3)	(21,13)	(-218,10)	(-440,1)	(-217,9)	(19,1)	(2,5)	(-220,5)	(48,3)	(7,8)	
L1D -31>	(0,5)	(7,9)	(-1,3)	(2,7)	(29,1)	(1,85)	(6,2)	(-31,1)	(-219,2)	(41,0)	(-218,0)	(30,1)	(5,0)	(298,0)	(20,3)	(14,1)	
L1D -30>	(-1,14)	(0,45)	(7,47)	(1,97)	(-8,1)	(-2,6)	(30,6)	(236,5)	(-217,1)	(19,1)	(-219,4)	(-218,4)	(-220,1)	(-96,7)	(21,1)	(4,1)	
L1D -29>	(0,38)	(1,67)	(7,13)	(-1,44)	(29,7)	(40,1)	(32,1)	(-96,2)	(46,1)	(301,0)	(30,1)	(24,0)	(-219,101)	(-94,0)	(49,0)	(-19,0)	
L1D -28>	(19,0)	(6,0)	(16,0)	(2,2)	(20,8)	(1,94)	(-100,1)	(53,0)	(-220,0)	(0,3)	(-6,0)	(-4,0)	(103,0)	(105,0)	(235,0)	(-217,0)	
L1D -27>	(24,1)	(10,1)	(1,81)	(-97,14)	(15,0)	(-219,3)	(235,1)	(-220,3)	(9,2)	(6,1)	(0,17)	(16,5)	(21,1)	(-218,0)	(-6,0)	(14,1)	
L1D -26>	(23,2)	(15,10)	(1,88)	(0,19)	(-3,40)	(24,30)	(-7,7)	(46,5)	(-98,24)	(234,8)	(4,6)	(21,8)	(49,4)	(-2,35)	(14,5)	(22,9)	
L1D -25>	(-6,74)	(1,23)	(5,10)	(-98,12)	(11,1)	(15,1)	(-218,1)	(23,1)	(20,3)	(21,6)	(0,24)	(118,0)	(-7,65)	(25,2)	(24,6)	(22,4)	
L1D -24>	(0,14)	(-6,102)	(4,92)	(-7,82)	(-218,1)	(-1,24)	(-3,1)	(21,10)	(2,21)	(20,4)	(1,12)	(16,12)	(25,10)	(26,14)	(24,53)	(-5,9)	
L1D -23>	(1,26)	(20,1)	(41,1)	(-1,26)	(-332,8)	(-7,108)	(0,11)	(16,7)	(21,3)	(-3,1)	(22,2)	(23,4)	(24,1)	(25,2)	(35,5)	(2,6)	
L1D -22>	(0,74)	(1,95)	(25,4)	(-331,3)	(-7,119)	(-218,1)	(21,9)	(40,4)	(22,16)	(2,36)	(-6,11)	(23,8)	(-100,13)	(34,8)	(-1,8)	(-332,9)	
L1D -21>	(0,104)	(-1,30)	(22,12)	(232,19)	(26,15)	(1,108)	(-3,81)	(25,25)	(-332,29)	(21,53)	(19,1)	(10,12)	(-4,7)	(24,29)	(-217,5)	(-100,24)	
L1D -20>	(1,114)	(-8,1)	(-218,8)	(0,78)	(-2,48)	(-5,2)	(20,37)	(24,2)	(4,51)	(-4,13)	(25,20)	(-101,8)	(-220,5)	(-332,19)	(-1,26)	(5,3)	
L1D -19>	(0,82)	(1,102)	(-4,1)	(-270,2)	(19,48)	(28,29)	(-332,23)	(14,10)	(-3,5)	(17,22)	(15,7)	(-220,7)	(7,3)	(6,2)	(-218,4)	(-2,8)	
L1D -18>	(0,23)	(-1,9)	(3,1)	(-332,5)	(-2,2)	(1,113)	(-3,3)	(4,113)	(12,0)	(6,3)	(15,0)	(-4,0)	(2,5)	(-5,0)	(7,2)	(19,0)	
L1D -17>	(1,107)	(0,100)	(-102,18)	(16,6)	(-1,21)	(-332,26)	(-218,3)	(6,22)	(11,7)	(-217,5)	(2,12)	(230,11)	(86,5)	(-4,7)	(3,2)	(-3,11)	
L1D -16>	(1,122)	(-103,8)	(-1,2)	(-217,5)	(-332,4)	(16,40)	(0,73)	(5,4)	(2,48)	(229,1)	(10,2)	(11,12)	(34,1)	(6,15)	(-106,5)	(-219,5)	
L1D -15>	(0,40)	(6,1)	(1,86)	(229,3)	(-1,6)	(-103,2)	(-331,2)	(15,6)	(14,1)	(4,1)	(9,12)	(2,4)	(-220,1)	(-332,1)	(11,4)	(3,0)	
L1D -14>	(-217,1)	(0,14)	(1,53)	(13,3)	(27,1)	(228,0)	(-2,34)	(16,11)	(8,0)	(-332,4)	(14,75)	(2,9)	(-104,1)	(5,5)	(49,0)	(282,7)	
L1D -13>	(4,96)	(-218,1)	(0,12)	(15,5)	(13,35)	(1,34)	(11,1)	(16,3)	(14,1)	(-3,1)	(-332,1)	(2,14)	(12,9)	(-104,3)	(-16,4)	(271,2)	
L1D -12>	(6,86)	(0,27)	(-8,4)	(-48,3)	(2,28)	(1,11)	(11,34)	(-223,10)	(-31,3)	(-47,1)	(-5,4)	(-1,5)	(12,40)	(15,3)	(-256,2)	(-36,1)	
L1D -11>	(1,78)	(0,39)	(6,67)	(-268,3)	(-231,4)	(15,27)	(-22,2)	(11,15)	(12,82)	(-8,4)	(-19,2)	(30,6)	(-41,1)	(5,4)	(2,2)	(10,2)	
L1D -10>	(-332,11)	(2,123)	(-10,51)	(-8,34)	(0,26)	(1,64)	(-106,12)	(10,12)	(21,25)	(11,1)	(-1,16)	(6,21)	(-6,38)	(-2,33)	(-5,15)	(4,86)	
L1D -9>	(1,103)	(-110,4)	(0,50)	(-11,4)	(-2,2)	(-5,6)	(-1,9)	(4,3)	(-8,11)	(-106,1)	(-218,8)	(9,5)	(2,19)	(8,1)	(226,4)	(15,6)	
L1D -8>	(1,42)	(-1,8)	(2,37)	(-4,11)	(-8,108)	(0,47)	(-11,5)	(-7,7)	(-3,14)	(15,1)	(-10,1)	(78,1)	(-5,15)	(-2,8)	(3,1)	(-6,8)	
L1D -7>	(0,48)	(1,75)	(-65,2)	(-107,1)	(-64,6)	(6,3)	(-91,1)	(31,1)	(-1,61)	(7,3)	(-8,13)	(2,14)	(-11,9)	(12,8)	(30,1)	(32,1)	
L1D -6>	(-11,11)	(1,68)	(-5,31)	(112,3)	(118,2)	(3,5)	(11,8)	(6,53)	(-2,9)	(-6,10)	(-53,1)	(-1,11)	(2,5)	(5,10)	(12,20)	(0,14)	
L1D -5>	(6,89)	(-8,60)	(1,57)	(-7,4)	(-41,4)	(-3,14)	(107,10)	(4,36)	(0,21)	(12,2)	(110,7)	(108,1)	(5,12)	(3,16)	(-1,15)	(-12,15)	
L1D -4>	(-11,44)	(4,71)	(1,51)	(19,1)	(0,19)	(-41,1)	(5,2)	(6,3)	(-5,1)	(43,3)	(3,9)	(-1,1)	(-8,3)	(2,6)	(73,1)	(-4,10)	
L1D -3>	(25,0)	(-7,35)	(110,5)	(0,64)	(3,17)	(10,20)	(-4,9)	(-334,2)	(108,7)	(-8,6)	(-218,4)	(-5,33)	(111,7)	(1,55)	(4,6)	(221,6)	
L1D -2>	(2,17)	(0,29)	(4,4)	(-1,6)	(-2,3)	(-5,8)	(-4,3)	(3,10)	(1,67)	(-36,3)	(-8,8)	(-332,4)	(224,1)	(6,1)	(-6,1)	(110,5)	
L1D -1>	(-22,5)	(0,91)	(1,120)	(2,3)	(-4,2)	(-2,15)	(-1,11)	(-5,7)	(-220,5)	(-219,3)	(-8,5)	(-9,4)	(-7,60)	(-218,4)	(5,2)	(-25,1)	
L1D 0>	(1,46)	(-3,5)	(-105,1)	(2,12)	(-8,5)	(0,120)	(14,3)	(5,2)	(3,7)	(15,6)	(-6,3)	(6,4)	(9,5)	(-10,1)	(-1,12)	(-219,3)	
L1D 1>	(5,4)	(1,109)	(-4,6)	(3,7)	(-218,1)	(14,2)	(-219,1)	(-6,0)	(2,5)	(-1,10)	(6,0)	(0,8)	(-2,0)	(8,0)	(-16,0)	(11,2)	
L1D 2>	(-10,2)	(1,100)	(-6,6)	(2,8)	(3,1)	(0,12)	(-13,2)	(-331,2)	(51,3)	(44,2)	(-2,17)	(-4,3)	(-1,7)	(-7,1)	(-3,32)	(6,1)	
L1D 3>	(-13,68)	(2,22)	(1,118)	(11,1)	(0,46)	(-9,14)	(-3,37)	(-7,13)	(3,15)	(110,12)	(-1,8)	(7,23)	(-6,10)	(334,10)	(113,8)	(-5,15)	
L1D 4>	(1,89)	(-25,1)	(-11,1)	(-4,93)	(10,3)	(11,1)	(-7,7)	(-6,6)	(-1,2)	(107,1)	(39,1)	(-5,3)	(8,2)	(0,11)	(79,1)	(6,3)	
L1D 5>	(-6,93)	(-11,48)	(-33,1)	(198,4)	(0,11)	(-5,64)	(-43,1)	(-42,1)	(-12,5)	(5,2)	(1,13)	(6,14)	(10,7)	(-1,5)	(-2,1)	(211,1)	
L1D 6>	(5,125)	(-7,14)	(-13,2)	(-6,10)	(0,14)	(-14,1)	(-38,1)	(203,1)	(-316,1)	(-5,3)	(-1,9)	(-11,21)	(8,1)	(-17,1)	(11,2)	(1,9)	
L1D 7>	(-6,36)	(1,18)	(-73,1)	(5,23)	(-2,119)	(-7,63)	(-72,38)	(-16,20)	(6,13)	(-108,3)	(-1,39)	(0,26)	(3,8)	(-71,32)	(11,6)	(-5,12)	
L1D 8>	(1,120)	(219,2)	(-6,3)	(8,55)	(-1,1)	(-16,1)	(-5,1)	(-306,5)	(-9,3)	(-279,5)	(0,6)	(-283,1)	(-8,4)	(-19,1)	(6,2)	(4,1)	
L1D 9>	(-5,5)	(218,29)	(-8,126)	(1,23)	(-116,1)	(-1,14)	(0,5)	(-113,2)	(-2,24)	(-24,4)	(215,33)	(-6,7)	(-9,5)	(6,23)	(-332,1)	(-114,2)	
L1D 10>	(4,6)	(1,14)	(-5,9)	(-1,37)	(-2,101)	(0,17)	(-4,69)	(-8,35)	(-11,1)	(5,8)	(-10,6)	(2,65)	(-6,11)	(-16,11)	(6,10)	(-20,19)	
L1D 11>	(-12,29)	(-11,78)	(0,12)	(-10,96)	(-26,3)	(-2,18)	(-27,12)	(6,12)	(1,29)	(-5,20)	(-6,68)	(-4,35)	(-19,1)	(2,29)	(212,3)	(205,3)	
L1D 12>	(-22,1)	(-11,75)	(-41,1)	(-5,2)	(-13,1)	(-12,42)	(-28,1)	(1,2)	(211,1)	(-14,2)	(-61,1)	(-60,2)	(5,3)	(6,3)	(0,2)	(-42,3)	
L1D 13>	(-12,71)	(0,10)	(-6,3)	(-11,15)	(-13,12)	(-7,11)	(-4,10)	(2,4)	(209,5)	(-120,6)	(-123,3)	(94,1)	(-126,11)	(-118,3)	(1,3)	(-1,8)	
L1D 14>	(-4,111)	(-15,1)	(257,2)	(1,14)	(0,6)	(-13,59)	(-12,4)	(72,1)	(-5,3)	(-8,1)	(-331,1)	(-14,41)	(-7,4)	(2,6)	(-6,3)	(-11,2)	
L1D 15>	(0,3)	(-4,48)	(-14,100)	(-11,10)	(-332,3)	(19,0)	(2,2)	(-5,0)	(-1,42)	(-15,0)	(-7,3)	(-223,0)	(6,1)	(214,1)	(-8,2)	(-6,2)	
L1D 16>	(0,32)	(20,7)	(-15,106)	(-5,9)	(1,7)	(-6,28)	(16,1)	(-8,43)	(-11,10)	(-1,14)	(-24,10)	(86,20)	(6,10)	(-3,12)	(-16,11)	(-7,70)	
L1D 17>	(2,36)	(-1,95)	(-4,22)	(1,47)	(-7,16)	(-3,28)	(-8,89)	(-16,12)	(0,100)	(-2,25)	(-11,55)	(-6,44)	(-23,1)	(-19,23)	(-332,100)	(-331,13)	
L1D 18>	(0,11)	(-29,2)	(1,87)	(5,1)	(-11,19)	(-18,2)	(-332,7)	(-13,1)	(6,1)	(-331,2)	(-10,1)	(8,0)	(88,2)	(-8,4)	(-1,0)	(-2,0)	
L1D 19>	(-34,1)	(1,57)	(-18,4)	(-2,3)	(2,35)	(-3,29)	(0,83)	(-1,33)	(-332,19)	(-10,5)	(-4,4)	(-11,53)	(3,2)	(6,41)	(-331,2)	(-42,1)	
L1D 20>	(6,19)	(-331,6)	(5,114)	(-6,28)	(-19,8)	(-20,63)	(-17,17)	(-5,17)	(-16,11)	(-13,1)	(0,51)	(-21,7)	(-12,1)	(-11,6)	(-332,19)	(2,1)	
L1D 21>	(6,51)	(-20,45)	(0,23)	(-331,4)	(-21,115)	(-18,71)	(-22,11)	(11,3)	(-25,109)	(5,18)	(-332,12)	(-6,14)	(-11,39)	(-17,43)	(-5,19)	(-24,16)	
L1D 22>	(-6,27)	(2,11)	(-22,113)	(-332,26)	(0,40)	(-23,1)	(-19,78)	(-29,2)	(-8,22)	(-21,17)	(1,4)	(-4,11)	(3,2)	(-1,8)	(-331,3)	(-18,48)	
L1D 23>	(-30,43)	(-22,45)	(-1,10)	(2,25)	(1,13)	(-29,28)	(-6,10)	(-19,40)	(0,38)	(-332,51)	(-331,12)	(-23,80)	(-8,48)	(-20,32)	(-9,1)	(-24,3)	
L1D 24>	(-24,119)	(-23,4)	(-5,21)	(237,2)	(0,13)	(-332,7)	(5,8)	(1,22)	(-20,54)	(28,2)	(-21,42)	(-6,41)	(45,1)	(6,2)	(-22,3)	(-8,1)	
L1D 25>	(-2,11)	(-3,31)	(-25,71)	(6,31)	(1,30)	(-11,16)	(-4,33)	(-22,41)	(-5,44)	(5,11)	(2,4)	(-1,73)	(-29,31)	(-31,3)	(-8,6)	(-21,49)	
L1D 26>	(1,11)	(-3,3)	(-26,31)	(-6,5)	(-22,7)	(-4,5)	(-5,20)	(-23,45)	(-2,15)	(5,90)	(6,22)	(-11,7)	(-8,8)	(-1,20)	(-17,1)	(0,1)	
L1D 27>	(2,1)	(0,14)	(-6,3)	(-25,88)	(-1,8)	(-7,2)	(-27,2)	(-16,1)	(-3,6)	(1,4)	(-22,1)	(-11,5)	(-8,3)	(-24,0)	(-28,0)	(-23,5)	
L1D 28>	(-29,17)	(1,47)	(-27,69)	(0,70)	(-5,6)	(11,47)	(-22,6)	(-26,88)	(-248,6)	(-23,8)	(-11,2)	(-28,8)	(25,2)	(6,1)	(-25,1)	(-1,18)	
L1D 29>	(1,48)	(-29,1)	(-30,6)	(-28,98)	(-108,2)	(0,32)	(2,25)	(-48,0)	(-23,1)	(3,27)	(6,5)	(-5,1)	(5,3)	(-6,2)	(11,0)	(-1,43)	
L1D 30>	(-31,1)	(-30,8)	(1,68)	(-2,0)	(-29,4)	(0,40)	(-23,0)	(-1,43)	(2,34)	(-8,1)	(-11,4)	(6,5)	(-5,1)	(11,0)	(3,28)	(-6,1)	
L1D 31>	(-25,3)	(-1,20)	(-2,6)	(-31,11)	(-32,7)	(-11,5)	(-5,6)	(-30,1)	(-6,3)	(-13,1)	(5,2)	(2,2)	(6,2)	(-8,3)	(0,6)	(1,5)	
L1D 32>	(-33,60)	(0,119)	(-31,33)	(1,14)	(-32,21)	(5,1)	(-2,18)	(-6,5)	(-47,2)	(-8,2)	(6,5)	(-64,3)	(-1,10)	(-11,27)	(2,2)	(-25,2)	
L1D 33>	(-33,112)	(0,119)	(1,46)	(2,23)	(-1,49)	(16,0)	(-31,37)	(-34,11)	(-5,1)	(198,1)	(-32,6)	(-6,0)	(6,2)	(-64,0)	(-8,0)	(5,0)	
L1D 34>	(1,2)	(-34,28)	(0,93)	(-1,36)	(6,7)	(-33,7)	(-83,1)	(-35,2)	(-8,1)	(35,1)	(-31,1)	(-5,4)	(-11,2)	(-2,1)	(-6,1)	(-44,0)	
L1D 35>	(6,33)	(1,7)	(0,91)	(11,13)	(-3,96)	(-36,4)	(-8,3)	(204,48)	(-254,2)	(5,12)	(-11,11)	(-1,8)	(-35,2)	(-34,8)	(-6,4)	(-5,5)	
L1D 36>	(-151,1)	(-36,3)	(2,79)	(10,2)	(1,3)	(6,84)	(0,54)	(-167,1)	(-16,1)	(-6,8)	(-1,1)	(-44,1)	(5,1)	(-5,1)	(11,1)	(4,1)	
L1D 37>	(1,3)	(-1,1)	(11,4)	(-5,4)	(0,8)	(-53,1)	(-8,1)	(6,8)	(5,2)	(-278,1)	(-69,1)	(-75,2)	(101,1)	(-37,4)	(-24,1)	(-316,1)	
L1D 38>	(-2,119)	(0,5)	(-57,1)	(-64,0)	(-278,0)	(-26,0)	(17,0)	(-6,28)	(6,1)	(-42,0)	(-5,2)	(5,0)	(-39,2)	(8,0)	(-38,0)	(1,1)	
L1D 39>	(5,1)	(1,37)	(-11,85)	(-5,5)	(-6,1)	(6,2)	(-1,1)	(11,1)	(-8,2)	(-42,4)	(2,2)	(0,0)	(-39,0)	(-10,1)	(-2,0)	(-37,1)	
L1D 40>	(1,38)	(0,59)	(-259,4)	(11,14)	(-1,2)	(6,64)	(-6,74)	(-42,34)	(-131,1)	(-41,2)	(-5,109)	(7,3)	(-261,1)	(-8,1)	(-79,1)	(128,1)	
L1D 41>	(-1,8)	(-41,10)	(-6,41)	(-42,4)	(1,84)	(0,26)	(6,74)	(-131,1)	(5,16)	(-5,32)	(203,2)	(-11,5)	(-73,0)	(-2,0)	(-40,0)	(-38,3)	
L1D 42>	(0,101)	(-1,41)	(-42,27)	(-41,9)	(1,10)	(-8,2)	(11,22)	(-6,5)	(-262,4)	(6,5)	(5,5)	(3,1)	(-44,1)	(-144,1)	(34,1)	(-5,3)	
L1D 43>	(0,8)	(-42,109)	(-36,1)	(-8,1)	(-6,0)	(1,14)	(6,5)	(-5,3)	(-44,1)	(9,0)	(2,0)	(1,0)	(1,0)	(1,0)	(1,0)	(1,0)	
L1D 44>	(412,1)	(-6,0)	(-44,9)	(7,121)	(299,0)	(199,3)	(-117,0)	(84,0)	(-58,1)	(-46,9)	(-5,0)	(-64,6)	(0,0)	(398,0)	(-10,0)	(1,0)	
L1D 45>	(5,1)	(1,16)	(-2,104)	(7,87)	(-35,1)	(-65,1)	(-99,1)	(-266,1)	(11,3)	(6,28)	(-45,1)	(-47,8)	(-79,0)	(0,2)	(-6,0)	(-5,2)	
L1D 46>	(1,82)	(-5,20)	(-47,17)	(-3,20)	(6,21)	(30,1)	(-6,16)	(0,7)	(-11,9)	(-34,0)	(-10,0)	(-134,1)	(200,1)	(11,4)	(-38,0)	(-4,0)	
L1D 47>	(-48,7)	(1,30)	(0,103)	(2,36)	(-8,31)	(-5,85)	(11,25)	(-134,2)	(-1,9)	(6,68)	(-267,3)	(-7,11)	(-47,16)	(-2,1)	(64,2)	(-12,1)	
L1D 48>	(-8,9)	(1,11)	(-5,36)	(5,22)	(0,31)	(-49,8)	(11,24)	(125,2)	(-6,70)	(-48,2)	(128,0)	(6,47)	(-269,1)	(-268,1)	(-11,4)	(4,1)	
L1D 49>	(1,20)	(11,16)	(-1,17)	(6,119)	(0,76)	(-7,1)	(-4,1)	(-49,9)	(10,2)	(-269,2)	(-5,2)	(-270,1)	(24,1)	(-50,3)	(-189,1)	(-256,1)	
L1D 50>	(6,45)	(5,1)	(1,3)	(-51,1)	(-11,11)	(10,1)	(-2,13)	(-1,1)	(72,5)	(1,0)	(1,0)	(1,0)	(1,0)	(1,0)	(1,0)	(1,0)	
L1D 51>	(-39,0)	(-7,68)	(-3,4)	(-83,0)	(-10,0)	(-51,3)	(-5,13)	(5,9)	(-52,4)	(-53,6)	(-6,12)	(-11,21)	(6,5)	(-71,3)	(1,0)	(-40,0)	
L1D 52>	(-5,6)	(-52,5)	(-7,74)	(-4,5)	(-11,0)	(-6,23)	(6,32)	(-66,0)	(5,10)	(-53,0)	(0,0)	(-1,0)	(-72,1)	(-40,0)	(-270,0)	(-54,1)	
L1D 53>	(6,63)	(1,3)	(-6,39)	(5,63)	(-5,40)	(-41,2)	(2,1)	(-2,1)	(-1,3)	(0,1)	(-11,76)	(-54,2)	(-137,1)	(-46,0)	(-37,0)	(-4,0)	
L1D 54>	(1,79)	(-6,21)	(-5,13)	(-2,1)	(-44,0)	(-4,0)	(2,0)	(-55,0)	(-8,0)	(-1,1)	(-47,1)	(0,2)	(-42,0)	(1,0)	(1,0)	(1,0)	
L1D 55>	(-3,4)	(-6,74)	(3,1)	(5,3)	(2,4)	(-55,1)	(-139,1)	(-47,1)	(0,5)	(-56,7)	(-8,7)	(-1,4)	(-28,2)	(1,1)	(-43,2)	(-138,1)	
L1D 56>	(1,1)	(-10,3)	(-11,86)	(-277,1)	(-3,2)	(53,0)	(-8,7)	(-7,2)	(-56,0)	(-5,0)	(-6,0)	(-34,0)	(-1,0)	(-2,0)	(-276,0)	(-283,0)	
L1D 57>	(-1,26)	(1,6)	(-11,91)	(-3,1)	(8,1)	(2,12)	(-10,0)	(-275,0)	(-2,6)	(-57,0)	(-274,0)	(-8,2)	(0,1)	(15,0)	(1,0)	(1,0)	
L1D 58>	(1,1)	(-10,3)	(-11,76)	(-279,0)	(125,0)	(124,0)	(-276,1)	(-6,12)	(-7,3)	(-3,14)	(-8,7)	(-32,1)	(-4,1)	(-5,0)	(-131,1)	(0,8)	
L1D 59>	(0,2)	(-280,0)	(-11,96)	(-6,9)	(-60,0)	(1,0)	(-1,0)	(-3,36)	(-7,2)	(-8,10)	(79,0)	(-5,0)	(-4,4)	(-34,0)	(-277,0)	(-10,2)	
L1D 60>	(1,4)	(-60,47)	(-6,9)	(-144,1)	(-2,3)	(-1,3)	(-11,76)	(-7,13)	(-8,19)	(-4,1)	(-279,1)	(-10,3)	(-3,1)	(-5,2)	(-278,2)	(-36,0)	
L1D 61>	(0,2)	(-1,12)	(-2,7)	(-6,21)	(-137,1)	(-254,64)	(-8,64)	(-7,4)	(-5,3)	(-61,1)	(67,1)	(-278,2)	(-69,1)	(-45,1)	(-279,1)	(-60,1)	
L1D 62>	(0,12)	(-62,7)	(21,1)	(-3,52)	(2,15)	(-1,17)	(-8,31)	(-2,1)	(-40,1)	(18,1)	(-44,1)	(-17,3)	(243,2)	(239,1)	(-46,1)	(1,2)	
L1D 63>	(-1,22)	(216,1)	(2,5)	(-2,1)	(-283,1)	(0,3)	(-8,20)	(-79,1)	(-476,1)	(-64,1)	(-18,2)	(-75,1)	(-71,1)	(1,1)	(-63,1)	(-16,1)	
L1D 64>	(-65,1)	(0,18)	(-51,1)	(191,1)	(-64,8)	(-79,1)	(-107,1)	(-32,3)	(-48,1)	(2,1)	(144,1)	(8,2)	(51,1)	(-63,1)	(328,1)	(-8,2)	
L1D 65>	(117,2)	(2,4)	(-8,9)	(-1,7)	(-32,1)	(203,1)	(-2,2)	(-127,2)	(139,2)	(1,1)	(-38,1)	(-9,1)	(0,15)	(196,1)	(-244,1)	(75,1)	
L1D 66>	(0,16)	(34,1)	(-3,5)	(-8,31)	(-2,1)	(-48,1)	(-36,1)	(-1,1)	(-47,1)	(1,0)	(1,0)	(1,0)	(1,0)	(1,0)	(1,0)	(1,0)	
L1D 67>	(0,43)	(-2,2)	(-8,49)	(-20,1)	(-79,1)	(-127,1)	(130,1)	(-83,1)	(-49,1)	(-48,1)	(-3,5)	(1,0)	(1,0)	(1,0)	(1,0)	(1,0)	
L1D 68>	(-1,2)	(0,97)	(-324,1)	(12,2)	(-60,1)	(-2,2)	(-4,1)	(-44,1)	(-68,2)	(-256,1)	(-40,1)	(-42,1)	(1,0)	(1,0)	(1,0)	(1,0)	
L1D 69>	(1,2)	(-1,3)	(2,1)	(-109,1)	(0,4)	(-83,1)	(-53,1)	(5,3)	(-35,1)	(184,14)	(-5,14)	(-2,3)	(-4,1)	(188,10)	(-8,5)	(1,0)	
L1D 70>	(2,6)	(-74,1)	(0,4)	(-70,3)	(-1,9)	(328,1)	(-197,1)	(1,0)	(1,0)	(1,0)	(1,0)	(1,0)	(1,0)	(1,0)	(1,0)	(1,0)	
L1D 71>	(2,24)	(-1,51)	(-8,52)	(-7,5)	(58,2)	(-22,1)	(182,10)	(186,2)	(0,7)	(-71,5)	(123,1)	(-197,3)	(205,2)	(343,2)	(-24,1)	(-4,1)	
L1D 72>	(0,24)	(-74,12)	(-1,4)	(-4,12)	(185,17)	(-255,4)	(-60,47)	(-8,1)	(-72,4)	(45,1)	(55,1)	(-64,1)	(-71,23)	(-10,2)	(-65,1)	(200,1)	
L1D 73>	(-1,108)	(-2,3)	(2,17)	(-173,2)	(1,1)	(3,3)	(-254,19)	(-183,19)	(175,1)	(72,1)	(-172,1)	(0,14)	(-6,15)	(-7,14)	(-5,1)	(-8,22)	
L1D 74>	(0,28)	(-1,3)	(18,11)	(-74,78)	(1,2)	(10,1)	(-73,13)	(-34,0)	(-115,0)	(-44,0)	(-108,0)	(2,8)	(-2,11)	(-128,0)	(343,1)	(-3,20)	
L1D 75>	(0,82)	(-1,12)	(2,38)	(-3,86)	(157,1)	(-2,2)	(58,6)	(30,1)	(37,1)	(144,1)	(89,5)	(10,1)	(5,2)	(172,4)	(-123,1)	(-66,1)	
L1D 76>	(-1,4)	(-60,1)	(0,21)	(63,1)	(146,5)	(-76,8)	(-78,1)	(-331,1)	(-38,1)	(-128,1)	(-333,1)	(-4,1)	(1,0)	(1,0)	(1,0)	(1,0)	
L1D 77>	(-1,6)	(-77,1)	(-8,2)	(0,3)	(179,2)	(-3,16)	(328,1)	(-2,5)	(-4,11)	(-397,1)	(-5,7)	(1,0)	(1,0)	(1,0)	(1,0)	(1,0)	
L1D 78>	(2,1)	(-45,1)	(1,41)	(0,3)	(-60,1)	(-44,1)	(-36,1)	(243,1)	(-8,1)	(-6,5)	(-5,1)	(1,0)	(1,0)	(1,0)	(1,0)	(1,0)	
L1D 79>	(-79,19)	(-64,6)	(-32,7)	(0,22)	(-7,3)	(174,1)	(243,1)	(57,1)	(211,1)	(2,11)	(-8,4)	(-13,2)	(-65,1)	(-1,8)	(-73,1)	(-61,1)	
L1D 80>	(1,6)	(48,1)	(0,8)	(-32,1)	(-412,1)	(-6,2)	(-22,1)	(-79,1)	(-255,1)	(69,1)	(1,0)	(1,0)	(1,0)	(1,0)	(1,0)	(1,0)	
L1D 81>	(2,36)	(1,22)	(-1,56)	(0,12)	(191,1)	(-221,1)	(-8,1)	(243,1)	(-81,1)	(69,3)	(-32,2)	(347,2)	(1,0)	(1,0)	(1,0)	(1,0)	
L1D 82>	(0,4)	(146,1)	(1,1)	(-8,1)	(-82,1)	(-96,4)	(69,1)	(1,0)	(1,0)	(1,0)	(1,0)	(1,0)	(1,0)	(1,0)	(1,0)	(1,0)	
L1D 83>	(0,35)	(-196,13)	(-191,18)	(138,20)	(141,11)	(-194,16)	(-197,7)	(177,2)	(137,2)	(135,1)	(-93,2)	(-3,82)	(140,24)	(146,20)	(-253,1)	(-53,1)	
L1D 84>	(-198,65)	(0,28)	(-217,5)	(-191,3)	(-195,49)	(-9,27)	(-192,16)	(134,10)	(-197,3)	(-194,6)	(128,2)	(-90,1)	(139,81)	(140,12)	(-85,3)	(137,23)	
L1D 85>	(136,85)	(-192,31)	(0,38)	(-203,1)	(-195,15)	(134,3)	(133,3)	(-198,15)	(-84,2)	(-221,1)	(-85,3)	(-89,1)	(139,15)	(220,3)	(-217,2)	(137,18)	
L1D 86>	(0,27)	(-196,17)	(-193,12)	(-194,1)	(138,86)	(-86,1)	(-72,34)	(135,3)	(-191,7)	(-217,1)	(137,0)	(-216,0)	(-75,1)	(-197,2)	(140,0)	(128,0)	
L1D 87>	(-195,1)	(0,9)	(-201,2)	(-89,6)	(-200,13)	(-93,5)	(136,3)	(2,3)	(-192,4)	(-198,5)	(-64,1)	(166,4)	(-94,1)	(137,6)	(1,2)	(-87,1)	
L1D 88>	(-254,14)	(-198,2)	(131,21)	(0,11)	(-115,3)	(133,20)	(217,5)	(-265,2)	(-216,47)	(-93,1)	(139,1)	(-113,1)	(136,2)	(-60,23)	(-193,1)	(135,1)	
L1D 89>	(-89,13)	(136,4)	(131,6)	(-191,32)	(135,26)	(0,1)	(-192,12)	(137,71)	(-193,3)	(138,63)	(121,2)	(-197,17)	(-200,8)	(134,4)	(-195,3)	(-196,10)	
L1D 90>	(-84,16)	(136,8)	(0,21)	(-200,6)	(-192,46)	(-195,19)	(137,125)	(-90,4)	(129,3)	(-203,13)	(-85,6)	(-198,19)	(133,9)	(134,37)	(117,1)	(-204,2)	
L1D 91>	(0,13)	(103,2)	(237,1)	(115,1)	(-110,2)	(-229,1)	(111,1)	(199,1)	(1,0)	(1,0)	(1,0)	(1,0)	(1,0)	(1,0)	(1,0)	(1,0)	
L1D 92>	(1,95)	(0,3)	(-216,2)	(-110,1)	(103,2)	(-35,3)	(37,1)	(-200,1)	(1,0)	(1,0)	(1,0)	(1,0)	(1,0)	(1,0)	(1,0)	(1,0)	
L1D 93>	(-85,117)	(138,15)	(-93,34)	(128,44)	(0,13)	(131,81)	(-89,113)	(129,1)	(-88,9)	(134,22)	(137,13)	(136,47)	(-195,14)	(-203,12)	(-193,13)	(-84,34)	
L1D 94>	(124,1)	(-94,67)	(-211,13)	(121,93)	(131,8)	(-214,71)	(-213,75)	(-104,23)	(-208,22)	(117,100)	(-106,12)	(-207,44)	(-218,10)	(0,17)	(118,43)	(119,11)	
L1D 95>	(-8,9)	(2,53)	(-1,7)	(-279,1)	(-110,1)	(-200,1)	(128,1)	(0,1)	(40,1)	(1,0)	(1,0)	(1,0)	(1,0)	(1,0)	(1,0)	(1,0)	
L1D 96>	(0,9)	(-96,76)	(-209,1)	(-107,1)	(-90,5)	(-212,1)	(3,6)	(-8,5)	(2,2)	(125,2)	(-195,1)	(122,2)	(7,1)	(-201,2)	(128,1)	(10,1)	
L1D 97>	(-97,9)	(103,1)	(0,7)	(-213,2)	(-1,2)	(1,1)	(306,1)	(-210,1)	(1,0)	(1,0)	(1,0)	(1,0)	(1,0)	(1,0)	(1,0)	(1,0)	
L1D 98>	(0,5)	(-211,3)	(211,1)	(-331,1)	(-101,9)	(-8,39)	(-104,4)	(-98,13)	(-1,10)	(-217,1)	(227,1)	(-212,1)	(-3,3)	(203,1)	(-94,1)	(-244,1)	
L1D 99>	(0,12)	(-212,13)	(103,5)	(-1,12)	(226,5)	(225,4)	(-102,12)	(-99,42)	(3,2)	(124,2)	(-215,4)	(1,11)	(-207,2)	(230,4)	(-90,1)	(-8,2)	
L1D 100>	(-207,29)	(227,3)	(118,1)	(9,6)	(231,3)	(-98,3)	(-100,29)	(-213,4)	(-94,16)	(-105,20)	(-219,1)	(217,2)	(-210,4)	(-216,1)	(8,23)	(-101,7)	
L1D 101>	(0,123)	(-99,29)	(4,4)	(-101,77)	(-98,32)	(2,13)	(93,10)	(10,34)	(210,1)	(13,2)	(-100,10)	(-332,3)	(228,4)	(7,16)	(-104,14)	(231,14)	
L1D 102>	(-102,27)	(0,13)	(226,25)	(6,39)	(-105,95)	(-100,15)	(93,75)	(89,21)	(-107,26)	(4,44)	(9,42)	(-99,52)	(227,25)	(90,2)	(-94,25)	(8,88)	
L1D 103>	(-108,7)	(-208,9)	(-210,101)	(89,14)	(-105,22)	(-94,7)	(-215,18)	(0,25)	(-1,18)	(1,1)	(-219,26)	(-106,8)	(-8,25)	(93,4)	(10,9)	(-100,10)	
L1D 104>	(89,14)	(-109,1)	(-102,79)	(0,26)	(-220,25)	(-107,28)	(210,5)	(7,13)	(-105,18)	(209,4)	(-101,10)	(4,5)	(227,21)	(-1,5)	(-110,26)	(9,26)	
L1D 105>	(-104,33)	(8,6)	(0,12)	(-107,10)	(107,1)	(224,34)	(-102,118)	(89,9)	(227,28)	(93,22)	(-108,30)	(4,15)	(-105,38)	(3,6)	(-103,21)	(214,6)	
L1D 106>	(-109,14)	(221,7)	(0,10)	(-106,6)	(-107,1)	(-105,4)	(223,12)	(230,5)	(-104,5)	(-103,74)	(-112,18)	(226,4)	(-108,4)	(-4,2)	(11,4)	(-111,3)	
[...]
L1D 472>	(1,0)	(1,0)	(1,0)	(1,0)	(1,0)	(1,0)	(1,0)	(1,0)	(1,0)	(1,0)	(1,0)	(1,0)	(1,0)	(1,0)	(1,0)	(1,0)	
L1D 473>	(0,2)	(8,2)	(1,0)	(1,0)	(1,0)	(1,0)	(1,0)	(1,0)	(1,0)	(1,0)	(1,0)	(1,0)	(1,0)	(1,0)	(1,0)	(1,0)	
L1D 474>	(-474,2)	(1,0)	(1,0)	(1,0)	(1,0)	(1,0)	(1,0)	(1,0)	(1,0)	(1,0)	(1,0)	(1,0)	(1,0)	(1,0)	(1,0)	(1,0)	
L1D 475>	(-219,1)	(-412,1)	(-139,1)	(1,0)	(1,0)	(1,0)	(1,0)	(1,0)	(1,0)	(1,0)	(1,0)	(1,0)	(1,0)	(1,0)	(1,0)	(1,0)	
L1D 476>	(-348,1)	(-138,1)	(-32,1)	(0,2)	(1,0)	(1,0)	(1,0)	(1,0)	(1,0)	(1,0)	(1,0)	(1,0)	(1,0)	(1,0)	(1,0)	(1,0)	
L1D 477>	(-64,2)	(0,4)	(-477,1)	(-393,1)	(1,0)	(1,0)	(1,0)	(1,0)	(1,0)	(1,0)	(1,0)	(1,0)	(1,0)	(1,0)	(1,0)	(1,0)	
L1D 478>	(1,0)	(1,0)	(1,0)	(1,0)	(1,0)	(1,0)	(1,0)	(1,0)	(1,0)	(1,0)	(1,0)	(1,0)	(1,0)	(1,0)	(1,0)	(1,0)	
L1D 479>	(0,2)	(1,0)	(1,0)	(1,0)	(1,0)	(1,0)	(1,0)	(1,0)	(1,0)	(1,0)	(1,0)	(1,0)	(1,0)	(1,0)	(1,0)	(1,0)	
L1D 480>	(1,0)	(1,0)	(1,0)	(1,0)	(1,0)	(1,0)	(1,0)	(1,0)	(1,0)	(1,0)	(1,0)	(1,0)	(1,0)	(1,0)	(1,0)	(1,0)	
L1D 481>	(1,0)	(1,0)	(1,0)	(1,0)	(1,0)	(1,0)	(1,0)	(1,0)	(1,0)	(1,0)	(1,0)	(1,0)	(1,0)	(1,0)	(1,0)	(1,0)	
L1D 482>	(1,0)	(1,0)	(1,0)	(1,0)	(1,0)	(1,0)	(1,0)	(1,0)	(1,0)	(1,0)	(1,0)	(1,0)	(1,0)	(1,0)	(1,0)	(1,0)	
L1D 483>	(1,0)	(1,0)	(1,0)	(1,0)	(1,0)	(1,0)	(1,0)	(1,0)	(1,0)	(1,0)	(1,0)	(1,0)	(1,0)	(1,0)	(1,0)	(1,0)	
L1D 484>	(1,0)	(1,0)	(1,0)	(1,0)	(1,0)	(1,0)	(1,0)	(1,0)	(1,0)	(1,0)	(1,0)	(1,0)	(1,0)	(1,0)	(1,0)	(1,0)	
L1D 485>	(1,0)	(1,0)	(1,0)	(1,0)	(1,0)	(1,0)	(1,0)	(1,0)	(1,0)	(1,0)	(1,0)	(1,0)	(1,0)	(1,0)	(1,0)	(1,0)	
L1D 486>	(1,0)	(1,0)	(1,0)	(1,0)	(1,0)	(1,0)	(1,0)	(1,0)	(1,0)	(1,0)	(1,0)	(1,0)	(1,0)	(1,0)	(1,0)	(1,0)	
L1D 487>	(1,0)	(1,0)	(1,0)	(1,0)	(1,0)	(1,0)	(1,0)	(1,0)	(1,0)	(1,0)	(1,0)	(1,0)	(1,0)	(1,0)	(1,0)	(1,0)	
L1D 488>	(1,0)	(1,0)	(1,0)	(1,0)	(1,0)	(1,0)	(1,0)	(1,0)	(1,0)	(1,0)	(1,0)	(1,0)	(1,0)	(1,0)	(1,0)	(1,0)	
L1D 489>	(1,0)	(1,0)	(1,0)	(1,0)	(1,0)	(1,0)	(1,0)	(1,0)	(1,0)	(1,0)	(1,0)	(1,0)	(1,0)	(1,0)	(1,0)	(1,0)	
L1D 490>	(1,0)	(1,0)	(1,0)	(1,0)	(1,0)	(1,0)	(1,0)	(1,0)	(1,0)	(1,0)	(1,0)	(1,0)	(1,0)	(1,0)	(1,0)	(1,0)	
L1D 491>	(1,0)	(1,0)	(1,0)	(1,0)	(1,0)	(1,0)	(1,0)	(1,0)	(1,0)	(1,0)	(1,0)	(1,0)	(1,0)	(1,0)	(1,0)	(1,0)	
L1D 492>	(1,0)	(1,0)	(1,0)	(1,0)	(1,0)	(1,0)	(1,0)	(1,0)	(1,0)	(1,0)	(1,0)	(1,0)	(1,0)	(1,0)	(1,0)	(1,0)	
L1D 493>	(1,0)	(1,0)	(1,0)	(1,0)	(1,0)	(1,0)	(1,0)	(1,0)	(1,0)	(1,0)	(1,0)	(1,0)	(1,0)	(1,0)	(1,0)	(1,0)	
L1D 494>	(1,0)	(1,0)	(1,0)	(1,0)	(1,0)	(1,0)	(1,0)	(1,0)	(1,0)	(1,0)	(1,0)	(1,0)	(1,0)	(1,0)	(1,0)	(1,0)	
L1D 495>	(1,0)	(1,0)	(1,0)	(1,0)	(1,0)	(1,0)	(1,0)	(1,0)	(1,0)	(1,0)	(1,0)	(1,0)	(1,0)	(1,0)	(1,0)	(1,0)	
L1D 496>	(1,0)	(1,0)	(1,0)	(1,0)	(1,0)	(1,0)	(1,0)	(1,0)	(1,0)	(1,0)	(1,0)	(1,0)	(1,0)	(1,0)	(1,0)	(1,0)	
L1D 497>	(1,0)	(1,0)	(1,0)	(1,0)	(1,0)	(1,0)	(1,0)	(1,0)	(1,0)	(1,0)	(1,0)	(1,0)	(1,0)	(1,0)	(1,0)	(1,0)	
L1D 498>	(1,0)	(1,0)	(1,0)	(1,0)	(1,0)	(1,0)	(1,0)	(1,0)	(1,0)	(1,0)	(1,0)	(1,0)	(1,0)	(1,0)	(1,0)	(1,0)	
L1D 499>	(1,0)	(1,0)	(1,0)	(1,0)	(1,0)	(1,0)	(1,0)	(1,0)	(1,0)	(1,0)	(1,0)	(1,0)	(1,0)	(1,0)	(1,0)	(1,0)	
L1D 500>	(1,0)	(1,0)	(1,0)	(1,0)	(1,0)	(1,0)	(1,0)	(1,0)	(1,0)	(1,0)	(1,0)	(1,0)	(1,0)	(1,0)	(1,0)	(1,0)	
L1D 501>	(1,0)	(1,0)	(1,0)	(1,0)	(1,0)	(1,0)	(1,0)	(1,0)	(1,0)	(1,0)	(1,0)	(1,0)	(1,0)	(1,0)	(1,0)	(1,0)	
L1D 502>	(1,0)	(1,0)	(1,0)	(1,0)	(1,0)	(1,0)	(1,0)	(1,0)	(1,0)	(1,0)	(1,0)	(1,0)	(1,0)	(1,0)	(1,0)	(1,0)	
L1D 503>	(1,0)	(1,0)	(1,0)	(1,0)	(1,0)	(1,0)	(1,0)	(1,0)	(1,0)	(1,0)	(1,0)	(1,0)	(1,0)	(1,0)	(1,0)	(1,0)	
L1D 504>	(1,0)	(1,0)	(1,0)	(1,0)	(1,0)	(1,0)	(1,0)	(1,0)	(1,0)	(1,0)	(1,0)	(1,0)	(1,0)	(1,0)	(1,0)	(1,0)	
L1D 505>	(1,0)	(1,0)	(1,0)	(1,0)	(1,0)	(1,0)	(1,0)	(1,0)	(1,0)	(1,0)	(1,0)	(1,0)	(1,0)	(1,0)	(1,0)	(1,0)	
L1D 506>	(1,0)	(1,0)	(1,0)	(1,0)	(1,0)	(1,0)	(1,0)	(1,0)	(1,0)	(1,0)	(1,0)	(1,0)	(1,0)	(1,0)	(1,0)	(1,0)	
L1D 507>	(1,0)	(1,0)	(1,0)	(1,0)	(1,0)	(1,0)	(1,0)	(1,0)	(1,0)	(1,0)	(1,0)	(1,0)	(1,0)	(1,0)	(1,0)	(1,0)	
L1D 508>	(1,0)	(1,0)	(1,0)	(1,0)	(1,0)	(1,0)	(1,0)	(1,0)	(1,0)	(1,0)	(1,0)	(1,0)	(1,0)	(1,0)	(1,0)	(1,0)	
L1D 509>	(1,0)	(1,0)	(1,0)	(1,0)	(1,0)	(1,0)	(1,0)	(1,0)	(1,0)	(1,0)	(1,0)	(1,0)	(1,0)	(1,0)	(1,0)	(1,0)	
L1D 510>	(1,0)	(1,0)	(1,0)	(1,0)	(1,0)	(1,0)	(1,0)	(1,0)	(1,0)	(1,0)	(1,0)	(1,0)	(1,0)	(1,0)	(1,0)	(1,0)	
L1D 511>	(1,0)	(1,0)	(1,0)	(1,0)	(1,0)	(1,0)	(1,0)	(1,0)	(1,0)	(1,0)	(1,0)	(1,0)	(1,0)	(1,0)	(1,0)	(1,0)	

L2C -64>	(1,132)	(-2,11)	(-1,37)	(2,18)	(0,15)	(40,1)	(8,6)	(-5,54)	(-4,10)	(-21,6)	(-7,9)	(-18,4)	(-6,7)	(-13,2)	(9,6)	(12,4)	
L2C -63>	(1,70)	(6,2)	(5,1)	(9,1)	(2,18)	(3,4)	(1,0)	(1,0)	(1,0)	(1,0)	(1,0)	(1,0)	(1,0)	(1,0)	(1,0)	(1,0)	
L2C -62>	(6,1)	(3,1)	(1,0)	(1,0)	(1,0)	(1,0)	(1,0)	(1,0)	(1,0)	(1,0)	(1,0)	(1,0)	(1,0)	(1,0)	(1,0)	(1,0)	
L2C -61>	(1,3)	(1,0)	(1,0)	(1,0)	(1,0)	(1,0)	(1,0)	(1,0)	(1,0)	(1,0)	(1,0)	(1,0)	(1,0)	(1,0)	(1,0)	(1,0)	
L2C -60>	(1,2)	(28,1)	(0,1)	(59,1)	(55,1)	(49,1)	(7,1)	(8,1)	(1,0)	(1,0)	(1,0)	(1,0)	(1,0)	(1,0)	(1,0)	(1,0)	
L2C -59>	(32,1)	(8,3)	(16,1)	(1,1)	(1,0)	(1,0)	(1,0)	(1,0)	(1,0)	(1,0)	(1,0)	(1,0)	(1,0)	(1,0)	(1,0)	(1,0)	
L2C -58>	(13,1)	(28,1)	(1,2)	(1,0)	(1,0)	(1,0)	(1,0)	(1,0)	(1,0)	(1,0)	(1,0)	(1,0)	(1,0)	(1,0)	(1,0)	(1,0)	
L2C -57>	(18,1)	(-1,1)	(2,2)	(1,8)	(57,1)	(28,1)	(1,0)	(1,0)	(1,0)	(1,0)	(1,0)	(1,0)	(1,0)	(1,0)	(1,0)	(1,0)	
L2C -56>	(1,56)	(-1,1)	(2,1)	(27,2)	(3,1)	(0,1)	(17,1)	(16,1)	(18,1)	(56,1)	(1,0)	(1,0)	(1,0)	(1,0)	(1,0)	(1,0)	
L2C -55>	(1,53)	(0,4)	(17,2)	(3,1)	(-5,1)	(13,1)	(18,2)	(5,2)	(14,2)	(55,9)	(2,1)	(16,2)	(10,1)	(42,1)	(1,0)	(1,0)	
L2C -54>	(1,32)	(19,1)	(54,1)	(2,1)	(55,1)	(1,0)	(1,0)	(1,0)	(1,0)	(1,0)	(1,0)	(1,0)	(1,0)	(1,0)	(1,0)	(1,0)	
L2C -53>	(4,1)	(1,7)	(5,2)	(2,2)	(-1,1)	(1,0)	(1,0)	(1,0)	(1,0)	(1,0)	(1,0)	(1,0)	(1,0)	(1,0)	(1,0)	(1,0)	
L2C -52>	(47,1)	(1,18)	(8,3)	(14,2)	(2,1)	(7,1)	(1,0)	(1,0)	(1,0)	(1,0)	(1,0)	(1,0)	(1,0)	(1,0)	(1,0)	(1,0)	
L2C -51>	(1,20)	(-2,1)	(51,1)	(17,5)	(2,1)	(3,1)	(33,1)	(-3,1)	(13,2)	(-4,1)	(28,1)	(-1,2)	(23,1)	(29,2)	(1,0)	(1,0)	
L2C -50>	(17,1)	(1,6)	(-5,3)	(50,3)	(2,1)	(19,2)	(23,1)	(-6,1)	(8,1)	(1,0)	(1,0)	(1,0)	(1,0)	(1,0)	(1,0)	(1,0)	
L2C -49>	(-11,1)	(14,1)	(25,1)	(1,3)	(21,1)	(16,1)	(9,1)	(32,2)	(1,0)	(1,0)	(1,0)	(1,0)	(1,0)	(1,0)	(1,0)	(1,0)	
L2C -48>	(-1,1)	(32,1)	(19,1)	(1,4)	(15,2)	(10,1)	(39,1)	(2,1)	(9,1)	(28,1)	(1,0)	(1,0)	(1,0)	(1,0)	(1,0)	(1,0)	
L2C -47>	(1,9)	(32,4)	(55,1)	(47,1)	(-8,1)	(2,1)	(27,1)	(1,0)	(1,0)	(1,0)	(1,0)	(1,0)	(1,0)	(1,0)	(1,0)	(1,0)	
L2C -46>	(47,1)	(1,8)	(6,1)	(4,7)	(-3,1)	(0,1)	(14,2)	(5,1)	(2,1)	(-10,1)	(8,1)	(1,0)	(1,0)	(1,0)	(1,0)	(1,0)	
L2C -45>	(46,1)	(1,5)	(24,1)	(35,1)	(60,1)	(17,1)	(55,1)	(9,1)	(28,1)	(27,1)	(1,0)	(1,0)	(1,0)	(1,0)	(1,0)	(1,0)	
L2C -44>	(40,1)	(-1,2)	(1,4)	(15,1)	(28,1)	(-2,1)	(7,1)	(32,1)	(2,1)	(5,1)	(27,2)	(1,0)	(1,0)	(1,0)	(1,0)	(1,0)	
L2C -43>	(45,1)	(1,4)	(14,1)	(-8,2)	(3,1)	(19,1)	(15,3)	(29,2)	(-9,1)	(38,1)	(26,2)	(6,1)	(13,2)	(-1,1)	(-14,1)	(1,0)	
L2C -42>	(3,3)	(14,7)	(20,8)	(40,5)	(25,1)	(18,3)	(13,2)	(7,4)	(4,5)	(27,9)	(-1,5)	(-13,2)	(32,4)	(17,3)	(19,4)	(36,2)	
L2C -41>	(46,2)	(19,2)	(12,2)	(40,6)	(-14,3)	(-1,4)	(-12,2)	(27,1)	(25,1)	(1,8)	(-13,1)	(-17,1)	(24,4)	(51,1)	(3,1)	(42,2)	
L2C -40>	(26,6)	(1,21)	(-1,2)	(19,1)	(13,1)	(23,3)	(41,1)	(24,3)	(27,1)	(46,5)	(8,1)	(0,1)	(33,1)	(1,0)	(1,0)	(1,0)	
L2C -39>	(1,17)	(-6,1)	(34,2)	(24,3)	(35,1)	(-3,1)	(10,1)	(2,2)	(-12,1)	(48,1)	(40,1)	(28,1)	(15,1)	(-2,1)	(31,1)	(27,3)	
L2C -38>	(1,26)	(8,3)	(14,1)	(-1,2)	(28,3)	(-6,4)	(27,4)	(36,1)	(-13,1)	(-21,1)	(39,1)	(30,2)	(15,1)	(18,1)	(13,1)	(16,2)	
L2C -37>	(1,24)	(6,1)	(-1,5)	(-19,1)	(36,1)	(-3,1)	(27,6)	(23,1)	(12,1)	(28,1)	(59,1)	(15,2)	(-17,1)	(31,1)	(-14,2)	(26,1)	
L2C -36>	(1,44)	(27,4)	(17,3)	(51,1)	(29,1)	(37,1)	(31,1)	(2,7)	(35,1)	(18,1)	(-15,1)	(16,1)	(-1,1)	(3,5)	(11,1)	(4,1)	
L2C -35>	(27,2)	(1,18)	(2,3)	(28,5)	(36,1)	(49,1)	(16,1)	(32,1)	(24,3)	(-3,1)	(34,1)	(7,1)	(-1,1)	(1,0)	(1,0)	(1,0)	
L2C -34>	(-1,4)	(5,1)	(27,5)	(1,11)	(3,1)	(31,1)	(15,1)	(-25,1)	(35,3)	(34,1)	(19,1)	(13,2)	(28,5)	(2,2)	(-17,1)	(-3,1)	
L2C -33>	(1,13)	(22,4)	(-20,1)	(-4,1)	(11,1)	(7,1)	(-17,1)	(-18,2)	(-11,1)	(0,1)	(28,6)	(-2,2)	(27,15)	(-1,3)	(4,1)	(23,1)	
L2C -32>	(1,8)	(27,27)	(-1,3)	(-2,2)	(19,5)	(21,2)	(13,9)	(28,13)	(0,4)	(29,1)	(32,4)	(14,19)	(26,2)	(25,2)	(2,1)	(33,1)	
L2C -31>	(27,14)	(26,9)	(10,1)	(1,6)	(37,1)	(-2,3)	(14,9)	(4,1)	(22,2)	(32,5)	(58,1)	(15,6)	(13,3)	(21,2)	(28,4)	(-1,3)	
L2C -30>	(1,14)	(-1,7)	(-5,2)	(-2,4)	(0,3)	(14,8)	(2,1)	(55,1)	(31,2)	(-14,1)	(-9,3)	(16,2)	(25,1)	(9,1)	(24,1)	(6,1)	
L2C -29>	(1,8)	(33,2)	(36,2)	(51,2)	(27,1)	(-4,1)	(11,1)	(10,1)	(-1,7)	(32,3)	(26,1)	(-8,1)	(9,1)	(52,2)	(17,1)	(12,1)	
L2C -28>	(1,13)	(-1,35)	(14,1)	(16,6)	(32,1)	(28,13)	(18,3)	(2,1)	(26,1)	(-4,3)	(0,5)	(-32,1)	(7,1)	(34,2)	(-2,8)	(59,1)	
L2C -27>	(5,2)	(14,2)	(-4,2)	(-1,4)	(38,3)	(22,2)	(1,4)	(-2,3)	(40,1)	(31,3)	(0,7)	(16,3)	(25,1)	(19,1)	(41,1)	(6,4)	
L2C -26>	(-3,3)	(-1,10)	(7,3)	(1,18)	(25,2)	(8,1)	(-6,1)	(-14,1)	(32,1)	(26,1)	(43,2)	(28,1)	(6,2)	(22,2)	(-2,2)	(16,1)	
L2C -25>	(1,17)	(-1,7)	(-6,4)	(17,7)	(16,5)	(-15,2)	(14,14)	(32,1)	(52,1)	(11,4)	(5,2)	(-5,5)	(27,1)	(26,2)	(28,2)	(-9,1)	
L2C -24>	(1,11)	(18,2)	(23,2)	(-3,2)	(-1,17)	(19,3)	(31,1)	(22,2)	(-7,2)	(2,1)	(10,2)	(43,2)	(41,1)	(34,3)	(-14,1)	(13,3)	
L2C -23>	(1,21)	(-2,3)	(24,2)	(14,1)	(-1,6)	(5,3)	(-11,2)	(41,1)	(15,6)	(42,1)	(29,1)	(2,2)	(18,4)	(60,1)	(16,3)	(48,1)	
L2C -22>	(22,2)	(14,4)	(1,15)	(-13,1)	(4,3)	(7,2)	(17,1)	(-16,4)	(21,3)	(-4,2)	(35,1)	(-1,14)	(-18,2)	(39,1)	(-2,2)	(23,4)	
L2C -21>	(1,27)	(6,8)	(-2,13)	(31,1)	(-1,22)	(22,5)	(27,3)	(-8,2)	(-12,1)	(-13,2)	(7,3)	(-15,2)	(19,2)	(20,1)	(11,1)	(3,3)	
L2C -20>	(1,25)	(-1,14)	(-8,5)	(-14,1)	(38,2)	(16,3)	(5,1)	(15,8)	(-2,5)	(-7,1)	(21,2)	(-16,2)	(7,2)	(4,2)	(22,1)	(37,1)	
L2C -19>	(1,38)	(3,3)	(-4,1)	(15,4)	(20,4)	(31,2)	(16,1)	(50,1)	(5,4)	(26,1)	(21,3)	(14,1)	(-1,15)	(33,3)	(36,2)	(2,5)	
L2C -18>	(1,67)	(-1,11)	(24,3)	(25,1)	(21,2)	(4,5)	(-17,1)	(31,1)	(-12,2)	(17,6)	(-24,1)	(8,1)	(33,1)	(-18,1)	(3,4)	(-14,1)	
L2C -17>	(-3,5)	(3,2)	(-11,2)	(0,1)	(19,2)	(2,4)	(17,12)	(-7,2)	(-5,2)	(1,31)	(-1,11)	(18,9)	(22,1)	(-24,5)	(-8,2)	(27,13)	
L2C -16>	(2,6)	(14,3)	(15,22)	(5,1)	(1,22)	(28,45)	(34,1)	(17,6)	(-19,2)	(0,7)	(-12,3)	(7,1)	(-13,2)	(16,14)	(10,1)	(27,10)	
L2C -15>	(15,31)	(1,62)	(19,3)	(10,4)	(28,3)	(-3,1)	(55,2)	(0,2)	(7,4)	(27,3)	(6,16)	(-1,20)	(2,3)	(11,7)	(-13,4)	(34,2)	
L2C -14>	(1,53)	(3,6)	(-1,26)	(6,2)	(14,18)	(13,9)	(4,5)	(55,4)	(8,4)	(-4,4)	(33,4)	(-2,5)	(2,11)	(11,39)	(-12,2)	(21,1)	
L2C -13>	(1,65)	(10,4)	(2,7)	(27,5)	(-1,18)	(26,3)	(14,7)	(-15,1)	(3,3)	(42,2)	(8,5)	(24,10)	(29,4)	(9,3)	(-8,5)	(-3,5)	
L2C -12>	(2,7)	(-1,28)	(11,7)	(1,31)	(13,5)	(29,2)	(-16,14)	(21,1)	(15,1)	(9,2)	(6,3)	(8,4)	(31,2)	(-7,1)	(10,4)	(-6,1)	
L2C -11>	(1,86)	(27,5)	(2,12)	(-9,3)	(-1,24)	(5,4)	(12,3)	(7,4)	(-3,3)	(-10,4)	(13,1)	(20,1)	(3,2)	(10,8)	(18,3)	(-14,2)	
L2C -10>	(11,62)	(-1,35)	(8,8)	(2,15)	(3,12)	(1,55)	(4,8)	(13,1)	(-6,3)	(10,6)	(14,4)	(0,14)	(-2,6)	(32,4)	(-3,10)	(9,14)	
L2C -9>	(1,113)	(-1,34)	(4,18)	(0,8)	(20,2)	(6,2)	(-2,5)	(-8,2)	(10,10)	(3,12)	(13,2)	(5,7)	(33,1)	(11,5)	(-10,3)	(2,5)	
L2C -8>	(-1,108)	(14,1)	(16,3)	(1,115)	(3,90)	(-2,10)	(4,73)	(-3,5)	(13,16)	(9,5)	(0,4)	(7,6)	(5,33)	(-42,6)	(2,7)	(-4,5)	
L2C -7>	(-8,6)	(-16,3)	(8,24)	(10,4)	(1,185)	(2,17)	(11,7)	(4,8)	(-1,90)	(16,3)	(-3,7)	(-2,46)	(-18,1)	(6,3)	(-13,2)	(-4,3)	
L2C -6>	(-1,185)	(1,156)	(3,14)	(2,38)	(-5,19)	(-2,20)	(0,25)	(10,8)	(-45,1)	(-4,6)	(9,5)	(6,4)	(7,20)	(4,6)	(-10,4)	(23,3)	
L2C -5>	(1,220)	(-1,39)	(4,52)	(-3,6)	(5,7)	(8,2)	(0,27)	(-2,16)	(-4,4)	(10,3)	(6,7)	(13,2)	(7,1)	(2,31)	(-32,1)	(3,15)	
L2C -4>	(-5,29)	(-1,110)	(1,241)	(2,19)	(-4,9)	(-10,18)	(5,24)	(8,2)	(-55,1)	(0,18)	(-9,1)	(4,47)	(-2,7)	(3,13)	(15,1)	(18,2)	
L2C -3>	(-1,250)	(4,20)	(1,137)	(6,7)	(12,1)	(-3,11)	(9,9)	(-2,71)	(0,37)	(5,6)	(3,14)	(-5,31)	(14,8)	(-6,4)	(2,30)	(-18,2)	
L2C -2>	(-4,3)	(-1,141)	(2,6)	(-3,8)	(-6,6)	(7,3)	(5,2)	(1,113)	(-2,20)	(3,9)	(30,1)	(23,1)	(0,7)	(21,1)	(18,1)	(15,1)	
L2C -1>	(-12,2)	(22,1)	(1,10)	(-1,221)	(3,5)	(-2,8)	(2,11)	(9,2)	(-4,2)	(18,2)	(-40,1)	(-5,1)	(21,2)	(14,0)	(-3,2)	(4,1)	
L2C 0>	(-23,1)	(1,18)	(0,171)	(18,1)	(9,2)	(-55,1)	(-14,1)	(10,1)	(-1,7)	(16,1)	(-4,2)	(-5,2)	(5,1)	(4,2)	(8,1)	(2,1)	
L2C 1>	(1,129)	(3,4)	(-7,1)	(-5,7)	(20,1)	(35,1)	(-4,1)	(2,2)	(-12,0)	(-1,3)	(7,1)	(-6,2)	(18,0)	(-15,0)	(-31,0)	(13,0)	
L2C 2>	(1,185)	(-2,5)	(-6,5)	(2,10)	(-5,4)	(4,9)	(-15,3)	(-1,13)	(8,2)	(3,18)	(13,1)	(-11,3)	(-3,12)	(7,2)	(-8,5)	(-4,2)	
L2C 3>	(1,215)	(3,5)	(-21,1)	(-1,45)	(-9,4)	(-6,3)	(12,1)	(-8,71)	(-2,11)	(-4,141)	(-5,61)	(-3,4)	(4,3)	(-12,1)	(0,3)	(2,17)	
L2C 4>	(1,232)	(-15,6)	(4,8)	(13,4)	(-8,20)	(-1,26)	(-4,67)	(0,17)	(-5,5)	(5,3)	(6,1)	(2,21)	(3,14)	(-14,4)	(-3,81)	(-2,8)	
L2C 5>	(1,142)	(-10,14)	(-3,7)	(-6,23)	(-11,9)	(-9,6)	(-1,80)	(-4,24)	(-2,44)	(10,3)	(-5,13)	(-16,1)	(2,13)	(32,1)	(-33,1)	(31,1)	
L2C 6>	(1,180)	(-7,12)	(-3,5)	(-1,33)	(2,16)	(-15,5)	(-10,2)	(4,2)	(-6,10)	(-4,9)	(3,5)	(-11,5)	(-5,15)	(-2,10)	(-8,6)	(-14,8)	
L2C 7>	(-8,10)	(1,114)	(-3,3)	(-1,45)	(15,5)	(-2,4)	(-14,1)	(-10,3)	(29,1)	(-41,1)	(-6,6)	(20,3)	(2,44)	(-18,1)	(7,2)	(-15,1)	
L2C 8>	(-6,13)	(-14,4)	(-1,44)	(1,67)	(3,6)	(5,4)	(-7,1)	(-2,8)	(4,7)	(-8,10)	(20,3)	(2,11)	(8,5)	(-4,13)	(-10,12)	(44,2)	
L2C 9>	(1,128)	(-1,27)	(-18,2)	(4,4)	(2,6)	(-2,34)	(-26,2)	(5,3)	(-9,6)	(-11,3)	(-3,4)	(-41,1)	(7,1)	(10,1)	(-14,8)	(-4,22)	
L2C 10>	(1,71)	(-6,6)	(-9,6)	(2,2)	(-18,1)	(-1,36)	(-3,3)	(-10,19)	(-11,2)	(-5,3)	(-38,1)	(-2,8)	(10,1)	(-8,3)	(-4,10)	(41,1)	
L2C 11>	(1,141)	(-7,8)	(-27,3)	(-25,6)	(-9,4)	(4,11)	(-24,4)	(-2,6)	(-14,1)	(-4,8)	(2,10)	(-1,21)	(-3,4)	(-20,2)	(17,3)	(3,4)	
L2C 12>	(1,109)	(-10,8)	(-3,2)	(-1,33)	(-15,2)	(-11,3)	(21,5)	(-6,2)	(4,3)	(5,1)	(3,1)	(-29,3)	(16,2)	(-13,2)	(2,5)	(-27,5)	
L2C 13>	(1,43)	(12,67)	(16,2)	(-6,5)	(-3,6)	(35,3)	(-16,4)	(-4,38)	(-13,3)	(17,1)	(2,22)	(-2,1)	(-18,3)	(0,2)	(-1,15)	(29,2)	
L2C 14>	(34,3)	(-15,4)	(1,41)	(-13,1)	(-14,19)	(-6,5)	(-17,2)	(4,6)	(-35,1)	(-4,9)	(17,1)	(18,1)	(-1,54)	(24,2)	(7,1)	(-7,4)	
L2C 15>	(4,17)	(-14,11)	(-15,17)	(-1,44)	(0,3)	(-30,2)	(11,11)	(-4,5)	(1,82)	(-5,5)	(3,3)	(-42,2)	(-32,1)	(-17,2)	(7,5)	(17,2)	
L2C 16>	(3,4)	(12,21)	(-1,27)	(-6,1)	(-3,3)	(-16,21)	(1,26)	(-18,5)	(-13,3)	(-5,4)	(27,3)	(-31,2)	(-32,6)	(0,9)	(-8,2)	(14,2)	
L2C 17>	(-26,2)	(-42,18)	(1,21)	(12,3)	(-17,9)	(10,2)	(15,1)	(-14,1)	(-16,2)	(-1,25)	(23,2)	(16,3)	(0,10)	(8,1)	(-33,2)	(-25,2)	
L2C 18>	(1,57)	(7,3)	(-6,2)	(2,14)	(-18,5)	(-11,1)	(-10,7)	(0,6)	(-1,15)	(10,1)	(-15,3)	(14,3)	(12,1)	(-2,9)	(15,2)	(-28,1)	
L2C 19>	(1,51)	(-16,3)	(2,5)	(-51,1)	(-1,15)	(-33,2)	(7,1)	(-24,2)	(-10,4)	(3,3)	(9,1)	(-34,3)	(-12,1)	(-26,1)	(-23,2)	(-15,2)	
L2C 20>	(1,26)	(-2,2)	(-18,3)	(-20,1)	(-7,2)	(-22,5)	(-1,22)	(-12,3)	(-17,1)	(22,1)	(-21,3)	(-5,1)	(-32,1)	(-15,2)	(-14,3)	(11,4)	
L2C 21>	(1,26)	(-1,23)	(-4,4)	(-23,3)	(-25,2)	(-24,2)	(30,1)	(18,1)	(-14,3)	(-7,1)	(-15,1)	(-37,2)	(2,4)	(-3,8)	(11,3)	(-8,5)	
L2C 22>	(1,63)	(-6,4)	(-38,1)	(-51,2)	(-20,1)	(-41,1)	(-18,7)	(-1,20)	(-8,3)	(4,2)	(-2,3)	(2,8)	(-4,3)	(-19,1)	(-31,2)	(-21,3)	
L2C 23>	(1,32)	(-24,5)	(2,2)	(-1,5)	(0,3)	(-23,8)	(-22,5)	(-8,4)	(4,2)	(6,2)	(-25,2)	(-31,2)	(8,2)	(3,1)	(-34,1)	(-2,2)	
L2C 24>	(-10,5)	(1,26)	(-2,3)	(-23,7)	(-33,3)	(8,2)	(-15,3)	(9,4)	(2,3)	(-42,1)	(4,3)	(19,1)	(30,2)	(-18,4)	(-16,4)	(-1,9)	
L2C 25>	(-10,2)	(-25,6)	(1,13)	(-19,1)	(-38,3)	(10,3)	(-35,1)	(9,1)	(-11,4)	(26,1)	(-1,7)	(15,1)	(11,1)	(-24,3)	(-9,2)	(-15,1)	
L2C 26>	(-1,10)	(1,13)	(-30,3)	(-15,3)	(-10,1)	(3,3)	(-51,1)	(-11,3)	(-25,2)	(0,1)	(-14,1)	(-24,1)	(15,2)	(-35,1)	(23,1)	(-8,1)	
L2C 27>	(3,5)	(-27,8)	(4,7)	(-10,9)	(-3,5)	(-28,3)	(-26,1)	(1,18)	(-32,6)	(-30,3)	(7,2)	(-33,3)	(-20,7)	(-34,2)	(-21,2)	(13,2)	
L2C 28>	(1,20)	(-1,11)	(-12,17)	(-27,3)	(-20,1)	(-9,3)	(-24,3)	(-2,2)	(-28,22)	(8,3)	(-5,2)	(0,4)	(-25,5)	(-30,3)	(-15,1)	(6,3)	
L2C 29>	(2,1)	(15,1)	(1,10)	(22,1)	(18,1)	(-12,1)	(-30,1)	(-5,1)	(-51,1)	(-11,1)	(-42,2)	(-16,5)	(-25,7)	(8,2)	(-7,1)	(-1,11)	
L2C 30>	(1,10)	(10,1)	(-15,2)	(-42,4)	(-33,1)	(-51,1)	(-25,1)	(-1,7)	(-30,2)	(-2,4)	(-8,1)	(-32,2)	(21,1)	(-17,1)	(8,1)	(4,1)	
L2C 31>	(-1,3)	(1,17)	(2,2)	(-30,3)	(-2,3)	(-36,1)	(-25,7)	(-4,1)	(-20,2)	(-17,1)	(-51,1)	(-16,1)	(17,1)	(-8,2)	(-26,1)	(-3,1)	
L2C 32>	(1,15)	(4,1)	(11,1)	(-51,1)	(-15,1)	(-6,2)	(-1,9)	(-16,4)	(-34,4)	(-3,1)	(-32,3)	(-8,1)	(-19,2)	(2,3)	(28,6)	(0,5)	
L2C 33>	(1,16)	(6,2)	(-5,1)	(-31,2)	(-21,1)	(-34,3)	(-12,1)	(17,3)	(-22,1)	(-1,4)	(-51,2)	(-30,2)	(-33,3)	(-50,1)	(-25,1)	(-11,3)	
L2C 34>	(1,36)	(-17,1)	(-15,1)	(-21,1)	(-41,1)	(-18,1)	(-1,7)	(-19,3)	(-11,1)	(0,1)	(-37,1)	(-36,1)	(25,1)	(-24,1)	(-2,1)	(-42,1)	
L2C 35>	(0,1)	(1,14)	(2,1)	(13,1)	(-36,1)	(-22,1)	(-34,2)	(-1,12)	(-2,2)	(-21,3)	(-30,1)	(-18,1)	(-16,1)	(5,1)	(-19,1)	(-10,1)	
L2C 36>	(1,9)	(-36,2)	(-1,7)	(-31,1)	(-42,4)	(-24,2)	(-17,2)	(11,3)	(2,2)	(-41,2)	(4,1)	(-34,1)	(-2,2)	(19,3)	(-19,2)	(-13,1)	
L2C 37>	(1,7)	(2,1)	(13,1)	(-1,8)	(-51,3)	(-18,2)	(-41,1)	(-3,1)	(-13,1)	(-22,1)	(-42,2)	(-35,1)	(-55,1)	(5,1)	(-40,1)	(-8,2)	
L2C 38>	(-37,1)	(1,4)	(-41,2)	(-24,1)	(-26,1)	(-1,6)	(-16,1)	(-17,1)	(-10,1)	(-2,1)	(-22,1)	(-12,1)	(-9,1)	(-42,1)	(11,1)	(-23,1)	
L2C 39>	(2,2)	(1,4)	(-56,1)	(-37,1)	(-34,1)	(-41,2)	(-55,1)	(-2,1)	(-42,1)	(-52,1)	(-1,2)	(-6,1)	(-9,1)	(-15,1)	(-19,1)	(-4,1)	
L2C 40>	(1,11)	(-42,4)	(-6,4)	(-9,1)	(-14,1)	(-41,2)	(-52,1)	(-27,1)	(-30,2)	(-15,1)	(-39,1)	(-1,7)	(-46,2)	(-55,1)	(-38,2)	(6,1)	
L2C 41>	(0,2)	(1,9)	(-10,1)	(-22,1)	(-37,1)	(-40,1)	(-38,1)	(-42,6)	(2,1)	(3,1)	(-39,1)	(-2,1)	(-27,1)	(-46,1)	(-1,1)	(-19,1)	
L2C 42>	(-22,2)	(-41,3)	(0,3)	(-1,4)	(-34,1)	(1,5)	(-48,1)	(8,2)	(-28,1)	(-42,1)	(-31,2)	(-46,1)	(-21,1)	(17,1)	(1,0)	(1,0)	
L2C 43>	(1,2)	(3,1)	(-42,2)	(-25,2)	(-18,1)	(-28,1)	(-43,1)	(-19,1)	(-38,1)	(-26,1)	(-21,1)	(-36,1)	(-31,1)	(-20,1)	(-39,1)	(-51,1)	
L2C 44>	(4,1)	(1,4)	(-43,5)	(9,2)	(-52,2)	(-24,1)	(16,1)	(7,1)	(1,0)	(1,0)	(1,0)	(1,0)	(1,0)	(1,0)	(1,0)	(1,0)	
L2C 45>	(1,3)	(-21,1)	(-36,1)	(-50,1)	(-14,1)	(-13,1)	(-22,1)	(-51,1)	(1,0)	(1,0)	(1,0)	(1,0)	(1,0)	(1,0)	(1,0)	(1,0)	
L2C 46>	(1,12)	(-22,1)	(2,3)	(-16,1)	(-44,1)	(-41,1)	(1,0)	(1,0)	(1,0)	(1,0)	(1,0)	(1,0)	(1,0)	(1,0)	(1,0)	(1,0)	
L2C 47>	(12,1)	(-43,1)	(-42,1)	(1,33)	(2,1)	(4,1)	(-47,1)	(1,0)	(1,0)	(1,0)	(1,0)	(1,0)	(1,0)	(1,0)	(1,0)	(1,0)	
L2C 48>	(12,2)	(1,17)	(-26,1)	(-25,1)	(-39,1)	(-47,1)	(8,1)	(1,0)	(1,0)	(1,0)	(1,0)	(1,0)	(1,0)	(1,0)	(1,0)	(1,0)	
L2C 49>	(1,15)	(-55,2)	(-50,2)	(-53,1)	(-15,1)	(-52,2)	(-39,1)	(0,3)	(-40,1)	(-21,1)	(1,0)	(1,0)	(1,0)	(1,0)	(1,0)	(1,0)	
L2C 50>	(1,2)	(-37,1)	(-36,1)	(-1,1)	(-55,3)	(-41,3)	(-22,3)	(0,3)	(-8,1)	(-15,1)	(-45,1)	(-20,1)	(-24,1)	(-59,1)	(1,0)	(1,0)	
L2C 51>	(0,1)	(-51,1)	(-27,2)	(1,4)	(-40,1)	(-39,1)	(-37,1)	(-26,1)	(-21,1)	(-17,1)	(-19,1)	(-4,1)	(-28,1)	(1,0)	(1,0)	(1,0)	
L2C 52>	(-41,1)	(-55,1)	(-18,1)	(-8,1)	(1,4)	(-51,1)	(0,1)	(1,0)	(1,0)	(1,0)	(1,0)	(1,0)	(1,0)	(1,0)	(1,0)	(1,0)	
L2C 53>	(-1,4)	(-9,2)	(1,2)	(1,0)	(1,0)	(1,0)	(1,0)	(1,0)	(1,0)	(1,0)	(1,0)	(1,0)	(1,0)	(1,0)	(1,0)	(1,0)	
L2C 54>	(-54,1)	(0,1)	(-50,3)	(1,1)	(-55,1)	(-8,1)	(-41,1)	(-7,1)	(1,0)	(1,0)	(1,0)	(1,0)	(1,0)	(1,0)	(1,0)	(1,0)	
L2C 55>	(0,9)	(-16,1)	(-27,1)	(-41,3)	(-55,9)	(-54,2)	(-50,2)	(-1,1)	(-22,1)	(-42,2)	(-18,1)	(1,0)	(1,0)	(1,0)	(1,0)	(1,0)	
L2C 56>	(1,1)	(-15,1)	(-51,1)	(1,0)	(1,0)	(1,0)	(1,0)	(1,0)	(1,0)	(1,0)	(1,0)	(1,0)	(1,0)	(1,0)	(1,0)	(1,0)	
L2C 57>	(-20,1)	(0,1)	(1,2)	(-37,1)	(1,0)	(1,0)	(1,0)	(1,0)	(1,0)	(1,0)	(1,0)	(1,0)	(1,0)	(1,0)	(1,0)	(1,0)	
L2C 58>	(-51,1)	(-25,1)	(-42,1)	(1,0)	(1,0)	(1,0)	(1,0)	(1,0)	(1,0)	(1,0)	(1,0)	(1,0)	(1,0)	(1,0)	(1,0)	(1,0)	
L2C 59>	(1,3)	(-59,1)	(-43,3)	(-27,1)	(-58,1)	(-8,2)	(-4,1)	(-42,1)	(-49,1)	(1,0)	(1,0)	(1,0)	(1,0)	(1,0)	(1,0)	(1,0)	
L2C 60>	(-51,1)	(-56,1)	(1,1)	(1,0)	(1,0)	(1,0)	(1,0)	(1,0)	(1,0)	(1,0)	(1,0)	(1,0)	(1,0)	(1,0)	(1,0)	(1,0)	
L2C 61>	(1,0)	(1,0)	(1,0)	(1,0)	(1,0)	(1,0)	(1,0)	(1,0)	(1,0)	(1,0)	(1,0)	(1,0)	(1,0)	(1,0)	(1,0)	(1,0)	
L2C 62>	(1,0)	(1,0)	(1,0)	(1,0)	(1,0)	(1,0)	(1,0)	(1,0)	(1,0)	(1,0)	(1,0)	(1,0)	(1,0)	(1,0)	(1,0)	(1,0)	
L2C 63>	(-58,1)	(-46,1)	(1,0)	(1,0)	(1,0)	(1,0)	(1,0)	(1,0)	(1,0)	(1,0)	(1,0)	(1,0)	(1,0)	(1,0)	(1,0)	(1,0)	

DRAM Statistics
 CHANNEL 0
 RQ ROW_BUFFER_HIT:       2284  ROW_BUFFER_MISS:       2151
 DBUS_CONGESTED:       3475
 WQ ROW_BUFFER_HIT:          0  ROW_BUFFER_MISS:          0  FULL:          0

 AVG_CONGESTED_CYCLE: 6
