
*** ChampSim Multicore Out-of-Order Simulator ***

Warmup Instructions: 1000000
Simulation Instructions: 10000000
Number of CPUs: 1
LLC sets: 2048
LLC ways: 16
Off-chip DRAM Size: 4096 MB Channels: 1 Width: 64-bit Data Rate: 3200 MT/s

CPU 0 runs /home/virtualcse/Data-Prefetching/ChampSim/dpc3_traces/641.leela_s-1052B.champsimtrace.xz
Ultra pref. initializing...
Ultra pref. initialized
Ultra pref. initializing...
Ultra pref. initialized

Warmup complete CPU 0 instructions: 1000002 cycles: 417949 (Simulation time: 0 hr 0 min 2 sec) 

Heartbeat CPU 0 instructions: 10000001 cycles: 10227602 heartbeat IPC: 0.977746 cumulative IPC: 0.917464 (Simulation time: 0 hr 0 min 14 sec) 
Finished CPU 0 instructions: 10000000 cycles: 10917355 cumulative IPC: 0.915973 (Simulation time: 0 hr 0 min 16 sec) 

CPU 0 Branch Prediction Accuracy: 84.4385% MPKI: 16.9079 Average ROB Occupancy at Mispredict: 28.9306

ChampSim completed all CPUs

Region of Interest Statistics

CPU 0 cumulative IPC: 0.915973 instructions: 10000000 cycles: 10917355
L1D TOTAL     ACCESS:    6388653  HIT:    6341785  MISS:      46868
L1D LOAD      ACCESS:    1896765  HIT:    1878381  MISS:      18384
L1D RFO       ACCESS:    1110563  HIT:    1106932  MISS:       3631
L1D PREFETCH  ACCESS:    3381325  HIT:    3356472  MISS:      24853
L1D WRITEBACK ACCESS:          0  HIT:          0  MISS:          0
L1D PREFETCH  REQUESTED:   28592722  ISSUED:   25684089  USEFUL:      10843  USELESS:      16016
L1D AVERAGE MISS LATENCY: 20.2269 cycles
L1I TOTAL     ACCESS:    1001874  HIT:    1001161  MISS:        713
L1I LOAD      ACCESS:    1001874  HIT:    1001161  MISS:        713
L1I RFO       ACCESS:          0  HIT:          0  MISS:          0
L1I PREFETCH  ACCESS:          0  HIT:          0  MISS:          0
L1I WRITEBACK ACCESS:          0  HIT:          0  MISS:          0
L1I PREFETCH  REQUESTED:          0  ISSUED:          0  USEFUL:          0  USELESS:          0
L1I AVERAGE MISS LATENCY: 13.9551 cycles
L2C TOTAL     ACCESS:     261603  HIT:     251299  MISS:      10304
L2C LOAD      ACCESS:      18600  HIT:      17851  MISS:        749
L2C RFO       ACCESS:       3621  HIT:       3559  MISS:         62
L2C PREFETCH  ACCESS:     232234  HIT:     222750  MISS:       9484
L2C WRITEBACK ACCESS:       7148  HIT:       7139  MISS:          9
L2C PREFETCH  REQUESTED:     632637  ISSUED:     420443  USEFUL:       1982  USELESS:       7512
L2C AVERAGE MISS LATENCY: 121.841 cycles
LLC TOTAL     ACCESS:      10522  HIT:       5405  MISS:       5117
LLC LOAD      ACCESS:        746  HIT:        433  MISS:        313
LLC RFO       ACCESS:         62  HIT:         62  MISS:          0
LLC PREFETCH  ACCESS:       9487  HIT:       4683  MISS:       4804
LLC WRITEBACK ACCESS:        227  HIT:        227  MISS:          0
LLC PREFETCH  REQUESTED:          0  ISSUED:          0  USEFUL:        220  USELESS:          0
LLC AVERAGE MISS LATENCY: 184.721 cycles
Major fault: 0 Minor fault: 345

L1D -512>	(0,122)	(-1,17)	(-2,6)	(26,2)	(8,5)	(-16,2)	(1,12)	(-3,2)	(128,2)	(-8,13)	(-7,2)	(58,1)	(-74,1)	(244,1)	(56,1)	(-5,4)	
L1D -511>	(1,15)	(1,0)	(1,0)	(1,0)	(1,0)	(1,0)	(1,0)	(1,0)	(1,0)	(1,0)	(1,0)	(1,0)	(1,0)	(1,0)	(1,0)	(1,0)	
L1D -510>	(1,0)	(1,0)	(1,0)	(1,0)	(1,0)	(1,0)	(1,0)	(1,0)	(1,0)	(1,0)	(1,0)	(1,0)	(1,0)	(1,0)	(1,0)	(1,0)	
L1D -509>	(299,1)	(1,0)	(1,0)	(1,0)	(1,0)	(1,0)	(1,0)	(1,0)	(1,0)	(1,0)	(1,0)	(1,0)	(1,0)	(1,0)	(1,0)	(1,0)	
L1D -508>	(10,1)	(298,1)	(508,1)	(1,0)	(1,0)	(1,0)	(1,0)	(1,0)	(1,0)	(1,0)	(1,0)	(1,0)	(1,0)	(1,0)	(1,0)	(1,0)	
L1D -507>	(10,1)	(1,0)	(1,0)	(1,0)	(1,0)	(1,0)	(1,0)	(1,0)	(1,0)	(1,0)	(1,0)	(1,0)	(1,0)	(1,0)	(1,0)	(1,0)	
L1D -506>	(11,1)	(10,1)	(1,0)	(1,0)	(1,0)	(1,0)	(1,0)	(1,0)	(1,0)	(1,0)	(1,0)	(1,0)	(1,0)	(1,0)	(1,0)	(1,0)	
L1D -505>	(10,2)	(11,1)	(1,0)	(1,0)	(1,0)	(1,0)	(1,0)	(1,0)	(1,0)	(1,0)	(1,0)	(1,0)	(1,0)	(1,0)	(1,0)	(1,0)	
L1D -504>	(299,1)	(183,2)	(294,1)	(182,3)	(293,1)	(10,2)	(11,1)	(504,1)	(1,0)	(1,0)	(1,0)	(1,0)	(1,0)	(1,0)	(1,0)	(1,0)	
L1D -503>	(286,8)	(10,1)	(503,2)	(292,2)	(181,1)	(11,1)	(1,0)	(1,0)	(1,0)	(1,0)	(1,0)	(1,0)	(1,0)	(1,0)	(1,0)	(1,0)	
L1D -502>	(292,2)	(10,4)	(297,1)	(502,2)	(1,0)	(1,0)	(1,0)	(1,0)	(1,0)	(1,0)	(1,0)	(1,0)	(1,0)	(1,0)	(1,0)	(1,0)	
L1D -501>	(190,1)	(185,1)	(10,9)	(501,1)	(1,0)	(1,0)	(1,0)	(1,0)	(1,0)	(1,0)	(1,0)	(1,0)	(1,0)	(1,0)	(1,0)	(1,0)	
L1D -500>	(500,2)	(11,1)	(1,0)	(1,0)	(1,0)	(1,0)	(1,0)	(1,0)	(1,0)	(1,0)	(1,0)	(1,0)	(1,0)	(1,0)	(1,0)	(1,0)	
L1D -499>	(1,0)	(1,0)	(1,0)	(1,0)	(1,0)	(1,0)	(1,0)	(1,0)	(1,0)	(1,0)	(1,0)	(1,0)	(1,0)	(1,0)	(1,0)	(1,0)	
L1D -498>	(1,0)	(1,0)	(1,0)	(1,0)	(1,0)	(1,0)	(1,0)	(1,0)	(1,0)	(1,0)	(1,0)	(1,0)	(1,0)	(1,0)	(1,0)	(1,0)	
L1D -497>	(287,1)	(1,0)	(1,0)	(1,0)	(1,0)	(1,0)	(1,0)	(1,0)	(1,0)	(1,0)	(1,0)	(1,0)	(1,0)	(1,0)	(1,0)	(1,0)	
L1D -496>	(11,1)	(289,1)	(1,0)	(1,0)	(1,0)	(1,0)	(1,0)	(1,0)	(1,0)	(1,0)	(1,0)	(1,0)	(1,0)	(1,0)	(1,0)	(1,0)	
L1D -495>	(288,1)	(495,1)	(10,1)	(294,1)	(1,0)	(1,0)	(1,0)	(1,0)	(1,0)	(1,0)	(1,0)	(1,0)	(1,0)	(1,0)	(1,0)	(1,0)	
L1D -494>	(10,1)	(11,4)	(494,1)	(298,1)	(1,0)	(1,0)	(1,0)	(1,0)	(1,0)	(1,0)	(1,0)	(1,0)	(1,0)	(1,0)	(1,0)	(1,0)	
L1D -493>	(10,1)	(287,1)	(493,1)	(11,1)	(1,0)	(1,0)	(1,0)	(1,0)	(1,0)	(1,0)	(1,0)	(1,0)	(1,0)	(1,0)	(1,0)	(1,0)	
L1D -492>	(286,1)	(287,5)	(292,2)	(186,1)	(11,1)	(181,1)	(1,0)	(1,0)	(1,0)	(1,0)	(1,0)	(1,0)	(1,0)	(1,0)	(1,0)	(1,0)	
L1D -491>	(10,1)	(1,0)	(1,0)	(1,0)	(1,0)	(1,0)	(1,0)	(1,0)	(1,0)	(1,0)	(1,0)	(1,0)	(1,0)	(1,0)	(1,0)	(1,0)	
L1D -490>	(290,1)	(285,1)	(1,0)	(1,0)	(1,0)	(1,0)	(1,0)	(1,0)	(1,0)	(1,0)	(1,0)	(1,0)	(1,0)	(1,0)	(1,0)	(1,0)	
L1D -489>	(1,0)	(1,0)	(1,0)	(1,0)	(1,0)	(1,0)	(1,0)	(1,0)	(1,0)	(1,0)	(1,0)	(1,0)	(1,0)	(1,0)	(1,0)	(1,0)	
L1D -488>	(1,0)	(1,0)	(1,0)	(1,0)	(1,0)	(1,0)	(1,0)	(1,0)	(1,0)	(1,0)	(1,0)	(1,0)	(1,0)	(1,0)	(1,0)	(1,0)	
L1D -487>	(299,34)	(404,6)	(10,32)	(288,29)	(304,4)	(0,4)	(1,3)	(21,2)	(11,9)	(414,2)	(293,6)	(9,9)	(20,1)	(298,1)	(283,1)	(487,2)	
L1D -486>	(12,1)	(414,1)	(54,1)	(283,1)	(11,2)	(284,1)	(10,3)	(0,1)	(303,2)	(277,1)	(63,1)	(1,0)	(1,0)	(1,0)	(1,0)	(1,0)	
L1D -485>	(21,3)	(298,1)	(11,2)	(292,3)	(283,1)	(342,2)	(289,1)	(1,0)	(1,0)	(1,0)	(1,0)	(1,0)	(1,0)	(1,0)	(1,0)	(1,0)	
L1D -484>	(1,4)	(316,1)	(21,3)	(10,3)	(-2,1)	(283,1)	(11,4)	(40,1)	(39,1)	(288,1)	(30,1)	(360,1)	(460,1)	(484,2)	(108,1)	(1,0)	
L1D -483>	(-3,1)	(10,3)	(288,1)	(297,1)	(11,2)	(-1,1)	(282,1)	(1,0)	(1,0)	(1,0)	(1,0)	(1,0)	(1,0)	(1,0)	(1,0)	(1,0)	
L1D -482>	(1,1)	(10,5)	(406,3)	(296,1)	(11,1)	(281,2)	(1,0)	(1,0)	(1,0)	(1,0)	(1,0)	(1,0)	(1,0)	(1,0)	(1,0)	(1,0)	
L1D -481>	(1,4)	(296,6)	(11,5)	(10,2)	(286,1)	(21,1)	(291,1)	(1,0)	(1,0)	(1,0)	(1,0)	(1,0)	(1,0)	(1,0)	(1,0)	(1,0)	
L1D -480>	(1,14)	(11,3)	(1,0)	(1,0)	(1,0)	(1,0)	(1,0)	(1,0)	(1,0)	(1,0)	(1,0)	(1,0)	(1,0)	(1,0)	(1,0)	(1,0)	
L1D -479>	(295,55)	(432,5)	(455,2)	(82,1)	(405,12)	(395,9)	(465,1)	(404,15)	(390,5)	(12,1)	(73,1)	(411,16)	(65,1)	(479,1)	(268,3)	(310,2)	
L1D -478>	(1,3)	(295,12)	(283,1)	(389,11)	(21,1)	(294,1)	(0,1)	(405,1)	(1,0)	(1,0)	(1,0)	(1,0)	(1,0)	(1,0)	(1,0)	(1,0)	
L1D -477>	(11,43)	(294,66)	(0,3)	(1,6)	(283,4)	(385,10)	(405,2)	(10,7)	(394,1)	(-10,5)	(28,2)	(404,1)	(2,1)	(20,1)	(410,1)	(21,1)	
L1D -476>	(293,51)	(283,11)	(63,2)	(10,9)	(-10,2)	(476,7)	(393,10)	(83,1)	(-11,5)	(11,2)	(426,1)	(129,1)	(111,1)	(49,1)	(59,1)	(130,1)	
L1D -475>	(128,1)	(1,1)	(293,7)	(11,2)	(287,1)	(268,1)	(282,11)	(301,1)	(381,1)	(9,1)	(283,2)	(10,1)	(316,1)	(370,1)	(298,1)	(45,1)	
L1D -474>	(-12,1)	(160,1)	(292,7)	(-1,1)	(72,1)	(11,1)	(474,2)	(71,1)	(1,0)	(1,0)	(1,0)	(1,0)	(1,0)	(1,0)	(1,0)	(1,0)	
L1D -473>	(281,2)	(293,1)	(277,5)	(11,2)	(-10,2)	(473,1)	(20,1)	(1,0)	(1,0)	(1,0)	(1,0)	(1,0)	(1,0)	(1,0)	(1,0)	(1,0)	
L1D -472>	(291,2)	(-1,1)	(-3,1)	(11,3)	(472,1)	(0,1)	(1,0)	(1,0)	(1,0)	(1,0)	(1,0)	(1,0)	(1,0)	(1,0)	(1,0)	(1,0)	
L1D -471>	(21,4)	(1,2)	(10,1)	(11,7)	(293,2)	(291,3)	(276,1)	(320,1)	(471,1)	(299,1)	(1,0)	(1,0)	(1,0)	(1,0)	(1,0)	(1,0)	
L1D -470>	(454,2)	(1,1)	(10,6)	(290,11)	(407,1)	(174,1)	(-11,2)	(291,1)	(119,1)	(406,1)	(109,1)	(437,1)	(1,0)	(1,0)	(1,0)	(1,0)	
L1D -469>	(1,6)	(290,24)	(9,3)	(299,1)	(11,8)	(0,1)	(345,1)	(10,3)	(402,1)	(296,1)	(21,2)	(-10,2)	(279,4)	(1,0)	(1,0)	(1,0)	
L1D -468>	(289,28)	(1,8)	(336,3)	(21,1)	(140,1)	(11,2)	(10,1)	(279,1)	(296,1)	(298,1)	(54,1)	(53,3)	(1,0)	(1,0)	(1,0)	(1,0)	
L1D -467>	(284,1)	(1,10)	(369,1)	(21,1)	(0,4)	(289,29)	(-20,4)	(296,1)	(11,16)	(405,1)	(294,2)	(22,1)	(419,1)	(-10,1)	(10,4)	(252,1)	
L1D -466>	(-21,8)	(383,3)	(0,2)	(278,3)	(410,2)	(1,5)	(11,5)	(288,23)	(10,7)	(289,7)	(388,13)	(399,3)	(-10,4)	(63,1)	(90,1)	(372,1)	
L1D -465>	(296,3)	(1,4)	(414,3)	(373,5)	(288,31)	(-22,62)	(393,25)	(398,4)	(-21,10)	(410,4)	(11,1)	(336,1)	(256,2)	(196,1)	(0,1)	(341,1)	
L1D -464>	(287,30)	(11,4)	(10,5)	(295,6)	(1,10)	(359,1)	(292,1)	(464,3)	(190,1)	(-21,1)	(398,5)	(278,1)	(-6,1)	(387,1)	(409,1)	(-22,2)	
L1D -463>	(1,1)	(295,1)	(10,6)	(299,2)	(268,1)	(-21,3)	(287,2)	(11,3)	(20,1)	(296,3)	(1,0)	(1,0)	(1,0)	(1,0)	(1,0)	(1,0)	
L1D -462>	(286,14)	(279,1)	(274,1)	(1,5)	(3,5)	(21,1)	(294,1)	(11,3)	(-8,1)	(345,1)	(10,1)	(-10,1)	(287,1)	(2,1)	(277,1)	(151,2)	
L1D -461>	(-1,1)	(-8,3)	(21,5)	(1,2)	(286,4)	(-21,2)	(111,1)	(11,2)	(278,2)	(3,1)	(264,1)	(289,1)	(1,0)	(1,0)	(1,0)	(1,0)	
L1D -460>	(1,3)	(0,4)	(286,11)	(10,6)	(285,11)	(9,1)	(92,3)	(129,2)	(11,4)	(293,2)	(299,6)	(-21,2)	(288,1)	(-22,2)	(460,1)	(21,1)	
L1D -459>	(1,7)	(459,5)	(285,47)	(12,2)	(332,2)	(-22,2)	(287,2)	(-7,1)	(-27,1)	(42,2)	(-21,25)	(294,2)	(102,1)	(395,5)	(384,2)	(10,4)	
L1D -458>	(1,3)	(284,48)	(0,4)	(10,2)	(8,1)	(29,1)	(9,1)	(395,1)	(-21,7)	(-2,1)	(187,1)	(11,3)	(394,1)	(-22,9)	(366,1)	(119,1)	
L1D -457>	(1,5)	(9,1)	(12,1)	(284,15)	(-22,6)	(10,3)	(342,1)	(389,3)	(258,1)	(291,1)	(11,5)	(382,1)	(457,1)	(-10,2)	(54,1)	(287,1)	
L1D -456>	(283,48)	(1,31)	(-11,3)	(295,5)	(259,2)	(288,1)	(11,25)	(290,1)	(-17,1)	(-6,1)	(-22,2)	(239,1)	(10,16)	(-21,13)	(0,8)	(383,2)	
L1D -455>	(283,26)	(289,2)	(291,5)	(10,5)	(1,3)	(-22,5)	(383,2)	(372,2)	(0,5)	(-21,2)	(5,9)	(77,1)	(44,1)	(446,2)	(434,5)	(11,5)	
L1D -454>	(1,5)	(290,11)	(10,7)	(-22,5)	(454,3)	(282,15)	(-13,1)	(9,2)	(453,1)	(444,6)	(382,1)	(285,1)	(422,2)	(443,2)	(-11,1)	(18,1)	
L1D -453>	(0,5)	(290,12)	(9,5)	(-22,29)	(361,2)	(282,15)	(4,10)	(11,6)	(453,11)	(442,13)	(443,15)	(452,9)	(5,9)	(381,8)	(-1,1)	(402,1)	
L1D -452>	(-22,32)	(327,2)	(10,5)	(11,3)	(82,1)	(21,1)	(452,3)	(441,4)	(451,6)	(1,6)	(-1,4)	(281,6)	(288,1)	(4,4)	(421,1)	(-21,2)	
L1D -451>	(-21,7)	(10,4)	(420,8)	(316,3)	(1,2)	(45,7)	(124,2)	(-1,4)	(21,2)	(9,1)	(399,1)	(441,2)	(429,1)	(5,2)	(451,5)	(281,1)	
L1D -450>	(409,2)	(1,18)	(21,18)	(5,3)	(4,8)	(429,10)	(440,10)	(439,6)	(10,3)	(-21,6)	(28,2)	(-5,2)	(419,2)	(450,2)	(294,2)	(11,3)	
L1D -449>	(11,2)	(438,23)	(298,1)	(1,15)	(280,16)	(-5,2)	(439,8)	(4,36)	(-21,5)	(448,7)	(0,3)	(10,3)	(-1,5)	(449,3)	(287,1)	(9,1)	
L1D -448>	(0,19)	(1,46)	(-21,11)	(279,13)	(437,3)	(4,23)	(390,5)	(378,3)	(98,2)	(448,2)	(2,2)	(373,3)	(43,1)	(416,1)	(-11,2)	(352,1)	
L1D -447>	(378,16)	(-22,6)	(279,31)	(-21,30)	(384,5)	(446,4)	(1,11)	(4,17)	(379,7)	(11,3)	(404,3)	(10,5)	(291,8)	(389,4)	(2,9)	(372,5)	
L1D -446>	(0,22)	(1,46)	(435,15)	(11,7)	(319,2)	(-21,12)	(21,6)	(278,18)	(-10,4)	(290,16)	(10,10)	(389,2)	(4,12)	(390,1)	(2,3)	(279,7)	
L1D -445>	(424,18)	(1,41)	(444,7)	(4,16)	(20,2)	(278,51)	(11,3)	(-22,2)	(-11,3)	(10,4)	(434,5)	(290,10)	(377,12)	(445,4)	(-21,2)	(283,1)	
L1D -444>	(7,2)	(1,77)	(0,8)	(10,5)	(11,5)	(423,10)	(277,16)	(286,2)	(272,1)	(424,4)	(433,4)	(104,1)	(4,7)	(-22,5)	(454,6)	(5,4)	
L1D -443>	(378,3)	(277,43)	(444,3)	(1,50)	(285,12)	(0,6)	(422,21)	(4,30)	(167,1)	(443,2)	(377,5)	(2,10)	(348,3)	(432,8)	(-22,6)	(-21,24)	
L1D -442>	(1,70)	(432,4)	(276,25)	(442,3)	(-1,2)	(284,5)	(431,20)	(277,3)	(0,4)	(11,1)	(4,39)	(376,4)	(5,7)	(452,5)	(2,3)	(345,4)	
L1D -441>	(1,79)	(276,14)	(-1,1)	(0,15)	(432,7)	(284,2)	(293,2)	(421,3)	(4,113)	(21,4)	(430,19)	(452,4)	(386,5)	(441,5)	(16,6)	(420,6)	
L1D -440>	(439,10)	(1,101)	(430,5)	(4,44)	(11,9)	(441,10)	(429,26)	(431,4)	(0,4)	(275,14)	(419,3)	(450,17)	(440,10)	(-1,1)	(21,2)	(-21,3)	
L1D -439>	(438,1)	(6,3)	(1,99)	(418,4)	(21,6)	(-1,4)	(408,2)	(440,10)	(275,8)	(439,7)	(4,34)	(11,6)	(449,10)	(2,6)	(428,15)	(-21,7)	
L1D -438>	(1,67)	(4,13)	(439,1)	(2,7)	(438,7)	(427,7)	(417,26)	(416,12)	(-21,2)	(380,2)	(448,4)	(0,8)	(21,1)	(274,8)	(296,1)	(286,2)	
L1D -437>	(274,66)	(436,14)	(415,5)	(1,108)	(373,5)	(0,3)	(-21,9)	(426,12)	(-1,5)	(416,21)	(379,3)	(380,3)	(10,1)	(447,2)	(4,8)	(-5,3)	
L1D -436>	(-1,6)	(-22,1)	(273,1)	(1,71)	(0,8)	(299,4)	(425,5)	(415,25)	(4,9)	(437,15)	(298,1)	(3,1)	(436,11)	(16,1)	(-21,3)	(285,1)	
L1D -435>	(285,1)	(1,71)	(-1,1)	(414,10)	(11,8)	(436,1)	(273,1)	(377,1)	(0,5)	(424,1)	(4,5)	(3,0)	(10,4)	(434,5)	(425,2)	(445,3)	
L1D -434>	(413,38)	(423,38)	(444,4)	(1,77)	(9,17)	(11,7)	(-21,3)	(4,12)	(0,5)	(298,3)	(284,2)	(445,2)	(273,2)	(435,3)	(424,17)	(3,1)	
L1D -433>	(4,15)	(1,83)	(372,3)	(272,9)	(286,1)	(422,4)	(433,1)	(-1,2)	(412,4)	(299,1)	(3,4)	(443,2)	(11,1)	(432,2)	(10,3)	(0,4)	
L1D -432>	(1,81)	(421,14)	(10,1)	(169,2)	(4,22)	(433,2)	(0,6)	(2,9)	(422,16)	(299,4)	(293,1)	(432,2)	(279,2)	(-22,5)	(411,20)	(271,1)	
L1D -431>	(1,102)	(441,8)	(430,7)	(409,1)	(4,28)	(298,8)	(299,4)	(11,5)	(10,3)	(420,9)	(431,2)	(0,2)	(-4,19)	(410,16)	(432,3)	(421,3)	
L1D -430>	(0,7)	(1,107)	(408,5)	(441,6)	(270,4)	(4,21)	(419,7)	(-11,1)	(-6,10)	(377,4)	(420,9)	(430,1)	(440,5)	(409,10)	(265,1)	(-8,1)	
L1D -429>	(1,100)	(270,5)	(430,4)	(4,10)	(418,38)	(-22,2)	(-4,3)	(408,7)	(-21,7)	(419,14)	(3,5)	(428,6)	(429,2)	(370,1)	(0,6)	(440,8)	
L1D -428>	(407,8)	(429,4)	(1,79)	(4,10)	(11,4)	(439,3)	(406,2)	(438,2)	(380,3)	(417,19)	(0,5)	(-21,2)	(10,3)	(170,1)	(270,1)	(269,3)	
L1D -427>	(4,19)	(1,110)	(416,29)	(417,17)	(405,12)	(3,2)	(406,30)	(0,10)	(290,4)	(380,5)	(2,1)	(296,1)	(379,4)	(-4,6)	(5,2)	(269,12)	
L1D -426>	(415,11)	(1,97)	(11,3)	(0,6)	(436,1)	(290,2)	(427,3)	(406,2)	(416,6)	(-4,9)	(405,9)	(425,4)	(268,1)	(4,1)	(2,1)	(10,3)	
L1D -425>	(1,66)	(4,10)	(0,18)	(268,7)	(11,4)	(414,5)	(415,8)	(405,13)	(10,5)	(426,3)	(280,1)	(404,12)	(-21,2)	(-4,9)	(293,1)	(425,2)	
L1D -424>	(1,78)	(-4,2)	(293,2)	(403,15)	(267,8)	(279,3)	(434,10)	(-22,2)	(289,1)	(424,2)	(11,1)	(414,5)	(4,10)	(165,1)	(413,7)	(404,1)	
L1D -423>	(10,4)	(412,9)	(401,6)	(1,122)	(433,10)	(414,2)	(423,5)	(4,52)	(402,16)	(-4,3)	(5,3)	(434,3)	(2,6)	(424,7)	(0,5)	(413,1)	
L1D -422>	(1,78)	(411,18)	(290,5)	(4,43)	(-21,3)	(401,12)	(412,1)	(432,7)	(266,1)	(294,2)	(10,3)	(2,9)	(11,2)	(400,13)	(-4,2)	(422,2)	
L1D -421>	(0,7)	(1,123)	(3,1)	(400,13)	(294,14)	(399,3)	(11,3)	(-22,24)	(293,11)	(411,11)	(431,4)	(-4,9)	(179,2)	(279,2)	(410,17)	(266,11)	
L1D -420>	(399,67)	(10,3)	(1,58)	(-11,3)	(11,7)	(4,12)	(293,18)	(431,4)	(0,3)	(288,1)	(265,21)	(409,9)	(-22,4)	(2,4)	(-21,5)	(-4,4)	
L1D -419>	(282,9)	(429,24)	(-21,5)	(-2,3)	(1,97)	(4,21)	(419,3)	(293,3)	(292,2)	(409,12)	(398,25)	(21,2)	(-4,116)	(397,25)	(265,13)	(10,2)	
L1D -418>	(10,3)	(1,102)	(429,12)	(418,2)	(375,3)	(397,13)	(408,15)	(419,9)	(0,2)	(-4,5)	(-10,1)	(4,8)	(407,5)	(428,8)	(11,2)	(5,1)	
L1D -417>	(1,87)	(380,10)	(4,14)	(396,21)	(264,18)	(428,19)	(0,31)	(276,1)	(418,13)	(406,40)	(364,5)	(427,11)	(2,6)	(-21,4)	(296,15)	(407,7)	
L1D -416>	(1,73)	(395,37)	(263,15)	(4,18)	(11,12)	(2,8)	(406,8)	(10,5)	(290,1)	(379,2)	(-11,4)	(-22,5)	(0,14)	(415,8)	(426,18)	(-21,2)	
L1D -415>	(404,18)	(1,119)	(416,18)	(298,3)	(10,10)	(263,8)	(-22,4)	(426,1)	(4,25)	(299,11)	(394,62)	(437,4)	(11,15)	(-4,14)	(0,29)	(393,4)	
L1D -414>	(11,23)	(293,3)	(2,9)	(299,4)	(1,71)	(262,5)	(0,8)	(-21,4)	(403,1)	(393,18)	(-4,15)	(4,30)	(415,3)	(395,2)	(10,10)	(424,6)	
L1D -413>	(424,6)	(1,74)	(297,6)	(4,4)	(-4,3)	(403,7)	(392,12)	(291,2)	(423,4)	(287,1)	(11,2)	(9,13)	(414,5)	(391,2)	(402,14)	(413,3)	
L1D -412>	(261,12)	(413,7)	(11,6)	(0,4)	(1,90)	(391,8)	(296,4)	(-22,1)	(-4,13)	(401,8)	(291,1)	(4,16)	(5,1)	(412,1)	(422,11)	(-8,1)	
L1D -411>	(-22,1)	(1,118)	(4,16)	(400,21)	(417,4)	(390,29)	(421,15)	(10,14)	(0,10)	(420,7)	(412,8)	(261,11)	(295,9)	(288,3)	(11,10)	(296,4)	
L1D -410>	(-10,1)	(1,118)	(-21,6)	(288,43)	(432,21)	(283,6)	(389,43)	(260,4)	(399,22)	(421,8)	(4,11)	(11,12)	(295,7)	(-4,10)	(10,26)	(294,8)	
L1D -409>	(10,13)	(293,9)	(388,19)	(1,105)	(0,12)	(11,15)	(-11,1)	(410,10)	(299,12)	(260,13)	(387,4)	(-4,13)	(398,19)	(288,22)	(2,4)	(4,20)	
L1D -408>	(1,105)	(-11,1)	(409,3)	(419,5)	(287,11)	(397,18)	(10,9)	(11,8)	(259,15)	(398,12)	(4,21)	(387,33)	(0,5)	(418,10)	(-4,9)	(-22,3)	
L1D -407>	(407,4)	(1,113)	(-4,15)	(10,18)	(286,14)	(386,21)	(-21,3)	(4,22)	(11,4)	(2,6)	(397,3)	(271,1)	(0,6)	(396,13)	(408,4)	(16,1)	
L1D -406>	(385,21)	(1,79)	(290,14)	(4,13)	(427,3)	(-4,6)	(395,10)	(417,14)	(416,5)	(10,8)	(428,7)	(407,3)	(-22,1)	(396,6)	(0,6)	(258,19)	
L1D -405>	(289,7)	(1,94)	(384,34)	(258,17)	(295,12)	(394,7)	(279,22)	(11,10)	(427,12)	(0,7)	(9,1)	(405,4)	(415,13)	(4,10)	(-21,4)	(406,6)	
L1D -404>	(404,5)	(293,19)	(1,67)	(283,17)	(257,1)	(294,11)	(0,14)	(10,28)	(299,49)	(11,18)	(4,16)	(393,9)	(394,6)	(383,15)	(-4,12)	(-11,6)	
L1D -403>	(10,16)	(4,13)	(257,9)	(1,74)	(298,32)	(0,7)	(382,29)	(11,5)	(269,3)	(293,1)	(282,10)	(367,2)	(392,15)	(-11,8)	(393,9)	(2,6)	
L1D -402>	(1,106)	(391,11)	(281,19)	(10,1)	(-1,4)	(-4,15)	(413,12)	(403,10)	(381,11)	(412,6)	(4,26)	(424,12)	(9,8)	(-22,4)	(310,6)	(392,5)	
L1D -401>	(10,5)	(4,20)	(391,1)	(1,86)	(-4,11)	(380,15)	(0,5)	(390,11)	(411,6)	(379,2)	(291,3)	(11,6)	(-21,3)	(256,2)	(290,6)	(280,12)	
L1D -400>	(10,8)	(1,67)	(0,7)	(283,9)	(379,11)	(-4,9)	(11,6)	(-11,1)	(400,1)	(290,9)	(-21,6)	(4,6)	(389,6)	(410,9)	(296,8)	(411,5)	
L1D -399>	(1,93)	(283,18)	(282,4)	(377,1)	(388,12)	(288,16)	(378,28)	(-4,17)	(10,20)	(293,15)	(409,20)	(290,12)	(294,20)	(389,6)	(0,15)	(11,5)	
L1D -398>	(1,88)	(293,34)	(408,16)	(377,12)	(278,3)	(299,1)	(287,2)	(282,14)	(-22,17)	(354,2)	(420,53)	(-21,7)	(387,17)	(4,19)	(382,5)	(409,10)	
L1D -397>	(408,12)	(1,84)	(-4,8)	(9,1)	(4,13)	(-21,21)	(376,13)	(281,6)	(0,6)	(-1,2)	(407,16)	(10,12)	(292,4)	(386,13)	(418,2)	(387,9)	
L1D -396>	(397,7)	(1,103)	(385,15)	(407,9)	(-4,10)	(291,21)	(9,12)	(283,12)	(10,7)	(11,4)	(-11,1)	(406,24)	(285,13)	(0,11)	(375,28)	(253,21)	
L1D -395>	(290,26)	(374,34)	(1,112)	(384,10)	(396,14)	(10,14)	(406,8)	(-4,17)	(0,8)	(11,19)	(4,14)	(253,37)	(405,19)	(-10,12)	(336,1)	(417,11)	
L1D -394>	(-4,17)	(-1,1)	(1,116)	(11,8)	(4,14)	(395,9)	(-22,14)	(290,13)	(416,14)	(-21,12)	(383,9)	(373,7)	(404,16)	(415,15)	(466,3)	(288,13)	
L1D -393>	(288,79)	(1,127)	(252,22)	(298,20)	(371,1)	(-11,36)	(277,7)	(283,10)	(10,6)	(0,14)	(372,49)	(293,17)	(4,29)	(11,37)	(404,25)	(-21,24)	
L1D -392>	(1,91)	(393,11)	(251,6)	(287,21)	(371,47)	(277,1)	(403,24)	(281,6)	(-11,5)	(9,21)	(-4,32)	(351,4)	(414,7)	(4,13)	(282,4)	(402,7)	
L1D -391>	(1,114)	(413,36)	(392,15)	(4,36)	(381,1)	(401,24)	(286,26)	(415,2)	(0,8)	(380,8)	(10,7)	(11,26)	(259,4)	(402,12)	(251,30)	(-4,58)	
L1D -390>	(-10,1)	(274,40)	(0,24)	(-21,47)	(1,113)	(-22,54)	(11,47)	(400,39)	(401,46)	(10,24)	(4,34)	(269,13)	(278,21)	(285,42)	(-11,22)	(279,10)	
L1D -389>	(-21,34)	(1,101)	(279,1)	(9,22)	(10,31)	(0,23)	(277,12)	(11,21)	(-11,33)	(290,17)	(400,40)	(283,20)	(390,11)	(-10,22)	(-22,30)	(284,22)	
L1D -388>	(1,123)	(278,14)	(283,52)	(0,20)	(284,16)	(11,15)	(-22,24)	(-11,1)	(282,44)	(249,24)	(399,32)	(10,33)	(277,14)	(398,27)	(-21,6)	(389,13)	
L1D -387>	(281,14)	(1,103)	(277,8)	(-22,26)	(409,16)	(-11,11)	(-10,5)	(176,1)	(282,10)	(249,16)	(-21,15)	(398,18)	(4,10)	(397,24)	(11,5)	(10,18)	
L1D -386>	(10,11)	(396,21)	(4,16)	(1,104)	(276,9)	(-21,19)	(270,13)	(265,6)	(275,13)	(408,31)	(407,14)	(291,1)	(0,14)	(11,14)	(-11,6)	(-22,10)	
L1D -385>	(1,120)	(275,19)	(248,11)	(0,14)	(264,1)	(10,24)	(274,23)	(11,22)	(396,21)	(395,31)	(-10,24)	(294,7)	(9,19)	(285,5)	(-22,35)	(4,22)	
L1D -384>	(293,12)	(279,22)	(10,24)	(373,8)	(1,74)	(11,21)	(-22,13)	(0,6)	(-21,5)	(4,23)	(394,10)	(277,5)	(406,20)	(395,18)	(285,4)	(347,1)	
L1D -383>	(278,20)	(293,10)	(1,70)	(11,27)	(272,8)	(-21,24)	(405,51)	(-11,19)	(247,12)	(284,11)	(283,38)	(-10,2)	(9,10)	(394,13)	(10,28)	(393,20)	
L1D -382>	(266,51)	(258,7)	(1,108)	(-11,23)	(246,13)	(277,25)	(392,42)	(9,49)	(387,4)	(272,17)	(393,41)	(11,1)	(254,3)	(10,27)	(0,6)	(291,3)	
L1D -381>	(5,43)	(380,46)	(169,7)	(1,58)	(0,9)	(170,5)	(168,10)	(387,1)	(381,2)	(165,12)	(281,7)	(171,6)	(11,14)	(3,70)	(246,5)	(4,33)	
L1D -380>	(286,1)	(253,1)	(4,6)	(1,7)	(171,1)	(420,1)	(2,109)	(0,21)	(11,3)	(264,4)	(402,3)	(-21,3)	(10,3)	(-11,2)	(379,5)	(148,1)	
L1D -379>	(4,28)	(274,9)	(10,7)	(280,6)	(2,93)	(1,40)	(-21,18)	(0,98)	(401,19)	(11,16)	(263,27)	(-22,19)	(264,1)	(-11,14)	(5,13)	(269,3)	
L1D -378>	(284,1)	(279,3)	(-21,3)	(1,38)	(399,8)	(378,1)	(-22,2)	(377,4)	(-10,2)	(244,4)	(3,1)	(-1,3)	(-2,126)	(433,1)	(400,9)	(-11,3)	
L1D -377>	(1,94)	(-11,1)	(256,4)	(0,3)	(2,4)	(377,9)	(396,1)	(398,1)	(159,1)	(-21,1)	(266,5)	(401,2)	(397,1)	(261,2)	(399,3)	(11,1)	
L1D -376>	(0,76)	(1,4)	(165,7)	(163,5)	(168,1)	(375,63)	(156,5)	(2,50)	(164,4)	(-1,27)	(158,6)	(157,5)	(162,8)	(-5,15)	(159,5)	(-2,10)	
L1D -375>	(375,9)	(1,126)	(-11,6)	(270,16)	(168,6)	(162,1)	(397,9)	(4,3)	(255,3)	(364,3)	(-10,4)	(-22,11)	(396,4)	(10,7)	(11,2)	(243,3)	
L1D -374>	(395,0)	(425,0)	(1,64)	(254,0)	(-22,0)	(242,0)	(440,0)	(272,0)	(258,0)	(-21,0)	(396,0)	(263,0)	(-11,0)	(8,0)	(358,0)	(269,0)	
L1D -373>	(1,116)	(-21,27)	(-10,1)	(11,31)	(10,25)	(267,21)	(-11,33)	(262,9)	(257,14)	(283,6)	(4,23)	(268,25)	(-22,14)	(395,58)	(256,18)	(252,8)	
L1D -372>	(393,1)	(261,9)	(267,6)	(11,9)	(1,115)	(394,3)	(10,5)	(-21,14)	(283,1)	(-22,2)	(-11,6)	(241,2)	(-10,7)	(8,1)	(262,2)	(382,3)	
L1D -371>	(266,33)	(1,119)	(-11,16)	(287,6)	(4,9)	(393,63)	(270,6)	(249,6)	(-21,25)	(-22,41)	(411,1)	(10,29)	(0,7)	(260,6)	(382,9)	(11,14)	
L1D -370>	(1,123)	(396,1)	(409,0)	(0,0)	(375,0)	(41,0)	(-23,0)	(-10,0)	(4,0)	(11,0)	(392,0)	(10,0)	(240,0)	(-11,1)	(265,0)	(254,0)	
L1D -369>	(1,95)	(-11,1)	(-10,1)	(370,18)	(-21,3)	(375,1)	(248,0)	(10,2)	(252,0)	(3,0)	(-22,0)	(390,0)	(408,0)	(258,2)	(189,0)	(264,1)	
L1D -368>	(0,26)	(5,42)	(1,27)	(-8,21)	(-22,6)	(258,13)	(149,5)	(357,1)	(369,8)	(367,121)	(160,4)	(-11,7)	(2,27)	(147,3)	(10,5)	(263,2)	
L1D -367>	(187,3)	(5,1)	(256,2)	(10,4)	(262,6)	(367,5)	(-21,5)	(0,1)	(368,117)	(349,1)	(251,4)	(-8,10)	(-10,1)	(257,4)	(351,2)	(272,1)	
L1D -366>	(-14,61)	(-11,35)	(1,48)	(2,41)	(-22,28)	(261,73)	(-8,29)	(378,1)	(356,9)	(271,18)	(-21,62)	(256,17)	(-10,37)	(250,49)	(365,5)	(376,16)	
L1D -365>	(-10,2)	(255,23)	(1,18)	(0,12)	(254,33)	(238,17)	(244,5)	(259,54)	(10,30)	(260,69)	(250,60)	(366,17)	(11,4)	(-11,48)	(-21,56)	(-22,19)	
L1D -364>	(-14,14)	(253,19)	(265,23)	(-16,9)	(-21,52)	(1,31)	(254,24)	(249,15)	(237,18)	(263,13)	(11,48)	(-11,31)	(259,53)	(2,1)	(238,25)	(-22,12)	
L1D -363>	(237,79)	(283,7)	(266,9)	(258,27)	(253,20)	(-21,47)	(262,1)	(10,21)	(1,17)	(247,8)	(-22,8)	(249,4)	(-11,21)	(-5,6)	(21,3)	(11,13)	
L1D -362>	(-11,1)	(-5,24)	(-21,16)	(382,2)	(-13,27)	(262,6)	(3,2)	(10,12)	(1,10)	(236,8)	(11,9)	(248,3)	(257,7)	(251,16)	(282,9)	(363,86)	
L1D -361>	(-2,15)	(-22,33)	(261,16)	(-5,21)	(1,14)	(277,8)	(3,8)	(401,1)	(362,5)	(244,8)	(236,12)	(11,104)	(256,38)	(390,27)	(-10,22)	(10,28)	
L1D -360>	(-21,7)	(265,12)	(9,1)	(10,9)	(1,71)	(235,2)	(244,3)	(239,2)	(-11,5)	(-10,15)	(-22,5)	(11,8)	(250,3)	(256,2)	(249,9)	(255,11)	
L1D -359>	(1,21)	(254,51)	(243,19)	(247,11)	(11,1)	(253,35)	(-21,88)	(10,34)	(235,44)	(270,28)	(-10,44)	(248,40)	(275,6)	(-11,66)	(264,10)	(343,11)	
L1D -358>	(254,1)	(247,13)	(-21,44)	(253,66)	(258,19)	(1,27)	(246,18)	(-11,37)	(269,51)	(234,18)	(11,52)	(3,6)	(242,75)	(-10,25)	(263,8)	(10,24)	
L1D -357>	(357,89)	(274,1)	(1,7)	(251,1)	(-10,1)	(179,1)	(241,0)	(178,0)	(-21,1)	(269,0)	(11,1)	(-22,0)	(21,0)	(10,0)	(198,0)	(-11,0)	
L1D -356>	(1,98)	(266,2)	(11,2)	(356,1)	(274,1)	(191,0)	(255,0)	(268,0)	(10,0)	(187,0)	(240,1)	(-21,0)	(-11,2)	(251,1)	(241,0)	(-22,0)	
L1D -355>	(0,10)	(250,43)	(256,17)	(-21,41)	(244,5)	(249,27)	(-10,22)	(1,30)	(245,47)	(240,6)	(11,81)	(10,23)	(251,10)	(254,7)	(-11,22)	(255,19)	
L1D -354>	(354,37)	(0,12)	(232,15)	(1,27)	(11,40)	(248,6)	(249,71)	(10,30)	(-11,22)	(180,1)	(250,12)	(244,39)	(243,57)	(343,17)	(21,8)	(-22,14)	
L1D -353>	(232,64)	(1,40)	(0,14)	(257,15)	(237,22)	(-11,23)	(248,31)	(253,26)	(11,28)	(21,7)	(-10,28)	(183,1)	(342,16)	(-21,22)	(273,11)	(10,24)	
L1D -352>	(352,8)	(1,58)	(231,23)	(241,53)	(272,7)	(236,29)	(10,43)	(48,47)	(247,35)	(257,2)	(11,47)	(-10,43)	(-22,36)	(0,8)	(246,30)	(-21,26)	
L1D -351>	(1,24)	(-21,49)	(11,70)	(231,104)	(235,32)	(240,19)	(243,4)	(246,76)	(272,13)	(10,39)	(0,11)	(-22,5)	(362,6)	(25,4)	(236,1)	(277,26)	
L1D -350>	(11,66)	(1,30)	(230,50)	(255,5)	(260,25)	(-10,1)	(10,14)	(251,7)	(235,11)	(240,6)	(234,26)	(239,32)	(-11,37)	(244,61)	(0,16)	(276,9)	
L1D -349>	(230,30)	(259,19)	(1,26)	(3,6)	(343,10)	(11,44)	(177,1)	(239,38)	(243,28)	(0,9)	(-22,26)	(238,21)	(255,5)	(10,32)	(244,25)	(-11,35)	
L1D -348>	(11,29)	(-10,32)	(241,31)	(270,10)	(324,1)	(237,49)	(-21,37)	(243,109)	(10,23)	(1,18)	(-11,30)	(366,19)	(-22,52)	(242,18)	(229,27)	(3,6)	
L1D -347>	(0,13)	(251,7)	(236,30)	(-22,25)	(-10,24)	(11,20)	(10,31)	(229,15)	(269,1)	(-21,39)	(242,17)	(1,18)	(246,4)	(-11,41)	(247,10)	(241,35)	
L1D -346>	(3,6)	(257,9)	(236,52)	(336,8)	(241,36)	(360,14)	(0,6)	(10,41)	(1,26)	(235,41)	(-10,34)	(240,32)	(-22,30)	(361,22)	(307,1)	(352,5)	
L1D -345>	(228,47)	(240,59)	(235,53)	(-22,13)	(1,27)	(234,37)	(10,47)	(177,1)	(244,10)	(-10,38)	(318,6)	(11,17)	(250,7)	(-11,38)	(327,5)	(-21,35)	
L1D -344>	(1,26)	(0,8)	(21,5)	(-22,32)	(233,41)	(333,14)	(-11,36)	(244,17)	(239,36)	(234,49)	(11,16)	(10,39)	(227,19)	(177,1)	(9,10)	(249,15)	
L1D -343>	(-21,90)	(21,3)	(1,19)	(332,20)	(327,6)	(227,27)	(264,5)	(238,19)	(243,15)	(-22,26)	(239,46)	(273,10)	(10,53)	(3,4)	(11,22)	(193,1)	
L1D -342>	(242,19)	(-22,57)	(11,19)	(1,30)	(232,4)	(237,16)	(-21,29)	(10,34)	(226,12)	(236,33)	(383,5)	(0,10)	(248,10)	(246,1)	(21,3)	(-11,10)	
L1D -341>	(242,10)	(-22,67)	(-21,15)	(10,35)	(226,44)	(0,8)	(236,31)	(267,6)	(235,38)	(231,23)	(179,1)	(230,29)	(1,21)	(11,13)	(-10,39)	(-11,37)	
L1D -340>	(1,30)	(177,1)	(235,65)	(0,6)	(239,4)	(225,41)	(-21,53)	(230,22)	(266,9)	(-22,47)	(3,4)	(-11,38)	(229,23)	(201,4)	(340,9)	(251,5)	
L1D -339>	(229,13)	(225,23)	(348,1)	(-11,37)	(-22,75)	(1,12)	(11,21)	(234,64)	(-21,54)	(10,16)	(-10,26)	(260,2)	(3,3)	(254,4)	(325,14)	(354,3)	
L1D -338>	(-21,60)	(1,21)	(236,14)	(11,15)	(233,28)	(-22,30)	(238,66)	(0,7)	(324,34)	(243,6)	(232,21)	(228,19)	(224,16)	(314,1)	(10,24)	(234,35)	
L1D -337>	(-22,38)	(232,38)	(224,26)	(233,43)	(0,13)	(237,32)	(231,6)	(10,29)	(-11,38)	(351,6)	(323,15)	(1,24)	(11,26)	(236,23)	(-21,44)	(396,1)	
L1D -336>	(242,10)	(-22,42)	(1,33)	(231,51)	(351,2)	(11,19)	(323,34)	(235,44)	(0,11)	(336,10)	(-11,44)	(-21,39)	(223,10)	(230,16)	(10,33)	(-10,17)	
L1D -335>	(1,7)	(230,73)	(10,20)	(-11,23)	(258,8)	(185,1)	(-21,20)	(3,1)	(-22,15)	(11,11)	(350,3)	(223,8)	(200,1)	(229,11)	(326,1)	(235,13)	
L1D -334>	(-11,22)	(1,9)	(-21,42)	(222,6)	(229,77)	(3,3)	(219,1)	(228,11)	(11,8)	(-22,7)	(230,6)	(223,2)	(349,7)	(251,2)	(2,3)	(234,8)	
L1D -333>	(-10,12)	(1,24)	(227,89)	(-22,74)	(-11,24)	(228,63)	(222,22)	(239,4)	(10,24)	(234,25)	(243,16)	(192,1)	(238,4)	(-21,14)	(257,5)	(11,7)	
L1D -332>	(-22,44)	(0,29)	(227,73)	(-21,27)	(233,4)	(251,12)	(243,3)	(221,66)	(10,11)	(1,14)	(-11,24)	(176,1)	(3,5)	(196,5)	(237,6)	(11,15)	
L1D -331>	(110,14)	(230,19)	(225,54)	(262,4)	(242,5)	(1,9)	(0,26)	(-11,45)	(258,4)	(-22,75)	(115,8)	(226,67)	(231,7)	(111,1)	(-21,39)	(10,15)	
L1D -330>	(0,3)	(224,31)	(225,19)	(230,11)	(-11,25)	(197,1)	(-22,4)	(338,8)	(258,2)	(1,6)	(339,11)	(3,3)	(193,2)	(-10,4)	(10,11)	(-21,12)	
L1D -329>	(-11,21)	(313,2)	(229,12)	(224,24)	(11,3)	(1,12)	(-10,7)	(230,2)	(223,9)	(-22,2)	(-21,7)	(338,3)	(337,12)	(10,9)	(323,1)	(-86,1)	
L1D -328>	(1,20)	(176,6)	(316,5)	(-11,41)	(229,18)	(0,5)	(222,9)	(-21,38)	(-10,1)	(228,9)	(223,13)	(317,10)	(241,8)	(233,15)	(322,7)	(10,10)	
L1D -327>	(1,8)	(-11,15)	(226,3)	(240,6)	(-21,42)	(228,40)	(259,3)	(0,3)	(-22,16)	(10,9)	(-10,12)	(227,15)	(177,1)	(254,5)	(222,17)	(322,5)	
L1D -326>	(227,17)	(-10,8)	(230,15)	(0,10)	(10,14)	(-21,22)	(226,20)	(253,24)	(-22,20)	(-11,15)	(225,14)	(-6,1)	(186,2)	(240,11)	(322,5)	(211,2)	
L1D -325>	(-10,9)	(-11,28)	(10,12)	(-22,15)	(1,12)	(179,1)	(224,3)	(235,3)	(3,2)	(11,10)	(239,5)	(-21,17)	(225,23)	(230,35)	(349,6)	(253,8)	
L1D -324>	(1,36)	(224,7)	(-22,4)	(239,7)	(229,35)	(-10,9)	(-11,11)	(338,4)	(11,3)	(223,11)	(179,4)	(9,1)	(-21,10)	(235,3)	(3,4)	(10,18)	
L1D -323>	(3,3)	(0,2)	(10,10)	(-11,20)	(1,10)	(222,28)	(229,16)	(234,4)	(238,3)	(-21,13)	(11,10)	(334,14)	(265,1)	(337,1)	(329,1)	(196,3)	
L1D -322>	(-21,18)	(254,2)	(252,3)	(232,2)	(10,14)	(327,2)	(246,2)	(238,12)	(257,3)	(-11,5)	(228,8)	(1,3)	(11,12)	(178,2)	(262,2)	(240,1)	
L1D -321>	(253,3)	(1,12)	(-10,19)	(0,3)	(10,3)	(262,4)	(-11,15)	(223,2)	(232,8)	(-21,21)	(251,4)	(237,5)	(228,1)	(-22,7)	(257,2)	(11,12)	
L1D -320>	(169,3)	(1,9)	(3,4)	(10,9)	(-11,10)	(-22,4)	(-10,2)	(320,3)	(256,2)	(250,2)	(175,2)	(21,4)	(173,1)	(-21,5)	(185,2)	(261,2)	
L1D -319>	(3,3)	(1,9)	(-1,4)	(227,4)	(-21,11)	(-22,3)	(236,2)	(-11,5)	(10,7)	(11,9)	(288,2)	(250,5)	(-10,3)	(338,2)	(183,1)	(261,3)	
L1D -318>	(224,2)	(1,4)	(238,2)	(228,7)	(11,9)	(-10,5)	(236,3)	(10,12)	(176,3)	(249,11)	(244,3)	(-11,6)	(336,1)	(-21,11)	(223,1)	(189,2)	
L1D -317>	(1,11)	(238,9)	(235,10)	(249,10)	(-10,3)	(11,11)	(227,30)	(9,1)	(-11,17)	(10,18)	(176,1)	(194,1)	(226,3)	(197,1)	(322,1)	(-21,6)	
L1D -316>	(225,12)	(3,3)	(221,3)	(10,13)	(1,4)	(235,18)	(222,6)	(248,12)	(386,2)	(-21,4)	(-16,2)	(-11,16)	(249,2)	(11,5)	(256,1)	(251,1)	
L1D -315>	(3,4)	(225,10)	(10,9)	(-11,10)	(-21,10)	(234,4)	(248,7)	(385,3)	(-65,1)	(169,3)	(185,1)	(1,4)	(11,7)	(173,2)	(330,3)	(339,7)	
L1D -314>	(3,5)	(1,5)	(-21,5)	(-11,6)	(174,4)	(11,15)	(338,1)	(234,8)	(10,12)	(175,6)	(225,3)	(314,2)	(169,3)	(21,2)	(347,2)	(172,4)	
L1D -313>	(3,4)	(229,3)	(10,3)	(233,13)	(1,4)	(-11,6)	(-21,4)	(337,6)	(292,2)	(174,2)	(11,1)	(196,1)	(308,1)	(249,2)	(139,1)	(189,2)	
L1D -312>	(3,5)	(1,7)	(173,3)	(-11,7)	(-21,10)	(-10,5)	(175,4)	(178,2)	(-6,12)	(233,8)	(10,5)	(172,3)	(11,5)	(190,1)	(252,3)	(0,3)	
L1D -311>	(10,10)	(3,4)	(232,3)	(1,11)	(246,2)	(257,2)	(262,2)	(227,2)	(252,1)	(179,1)	(-11,11)	(248,5)	(-21,14)	(0,1)	(-10,1)	(386,1)	
L1D -310>	(3,6)	(-21,10)	(1,11)	(10,1)	(334,5)	(256,3)	(-11,6)	(299,48)	(-10,5)	(246,3)	(245,2)	(248,5)	(172,2)	(-22,2)	(11,5)	(226,2)	
L1D -309>	(0,2)	(11,5)	(299,100)	(1,7)	(298,28)	(186,2)	(174,5)	(-22,3)	(193,3)	(293,3)	(-21,4)	(172,2)	(3,2)	(175,1)	(192,1)	(10,4)	
L1D -308>	(3,5)	(1,7)	(188,1)	(11,10)	(0,2)	(-2,9)	(199,2)	(298,10)	(231,4)	(-11,4)	(245,2)	(244,3)	(10,9)	(255,2)	(-21,13)	(177,3)	
L1D -307>	(249,4)	(11,1)	(170,2)	(1,12)	(233,7)	(355,2)	(222,15)	(-11,8)	(-21,8)	(227,2)	(291,5)	(296,62)	(297,8)	(230,2)	(178,3)	(10,3)	
L1D -306>	(0,12)	(1,73)	(11,13)	(295,4)	(296,56)	(3,9)	(16,48)	(243,17)	(-21,15)	(230,10)	(2,1)	(6,1)	(179,1)	(10,8)	(249,2)	(177,1)	
L1D -305>	(1,26)	(229,6)	(0,2)	(10,14)	(243,12)	(-11,3)	(295,75)	(294,51)	(11,8)	(-21,9)	(346,2)	(-22,14)	(270,2)	(184,1)	(174,2)	(2,3)	
L1D -304>	(299,35)	(3,6)	(174,4)	(10,14)	(11,59)	(0,6)	(1,8)	(-21,12)	(414,2)	(294,44)	(293,50)	(304,8)	(229,2)	(242,9)	(188,1)	(173,3)	
L1D -303>	(3,5)	(1,23)	(292,56)	(287,4)	(298,34)	(11,54)	(10,24)	(228,12)	(76,2)	(197,2)	(293,121)	(242,3)	(179,2)	(303,3)	(188,1)	(173,3)	
L1D -302>	(-10,2)	(1,64)	(296,6)	(173,2)	(297,9)	(10,6)	(7,2)	(-22,9)	(228,3)	(11,25)	(292,3)	(177,2)	(-11,3)	(244,4)	(-21,9)	(176,1)	
L1D -301>	(1,29)	(252,3)	(10,5)	(291,54)	(0,3)	(-10,1)	(-82,2)	(243,6)	(296,23)	(295,17)	(175,3)	(11,9)	(22,2)	(-21,7)	(290,64)	(180,2)	
L1D -300>	(1,27)	(289,51)	(290,33)	(0,7)	(97,1)	(180,2)	(11,53)	(295,24)	(10,10)	(-22,5)	(227,4)	(-21,8)	(3,8)	(176,2)	(251,7)	(240,7)	
L1D -299>	(1,21)	(0,18)	(304,124)	(415,1)	(487,8)	(251,9)	(294,28)	(289,57)	(11,88)	(299,13)	(293,13)	(-21,7)	(404,33)	(431,6)	(288,109)	(10,49)	
L1D -298>	(1,38)	(10,50)	(3,7)	(21,9)	(303,61)	(287,20)	(293,20)	(242,6)	(277,1)	(11,70)	(430,6)	(304,32)	(414,35)	(486,11)	(-21,15)	(288,20)	
L1D -297>	(292,16)	(1,8)	(11,21)	(-21,11)	(297,8)	(402,6)	(-11,1)	(291,9)	(10,9)	(287,16)	(282,1)	(-10,2)	(403,1)	(401,7)	(172,2)	(286,8)	
L1D -296>	(291,34)	(1,14)	(285,22)	(290,7)	(417,1)	(0,6)	(-21,10)	(301,20)	(401,7)	(227,7)	(-10,2)	(11,30)	(10,35)	(286,2)	(349,2)	(233,2)	
L1D -295>	(284,54)	(285,18)	(1,23)	(290,32)	(238,13)	(301,35)	(10,34)	(11,56)	(411,1)	(279,4)	(0,9)	(300,17)	(172,2)	(185,2)	(433,3)	(400,14)	
L1D -294>	(11,105)	(299,31)	(1,25)	(0,20)	(289,21)	(288,22)	(283,40)	(477,55)	(294,14)	(-10,9)	(10,50)	(399,6)	(422,4)	(-22,5)	(410,1)	(-21,5)	
L1D -293>	(298,26)	(299,7)	(382,3)	(288,30)	(0,7)	(420,1)	(398,19)	(10,89)	(393,31)	(1,11)	(409,7)	(11,74)	(182,5)	(476,28)	(293,14)	(282,33)	
L1D -292>	(408,7)	(292,36)	(287,12)	(186,1)	(383,2)	(298,3)	(236,4)	(3,3)	(1,10)	(391,2)	(392,17)	(-11,3)	(10,24)	(297,8)	(11,37)	(282,37)	
L1D -291>	(1,23)	(0,7)	(379,1)	(406,3)	(296,15)	(286,11)	(10,35)	(285,8)	(-10,5)	(281,8)	(241,3)	(315,2)	(297,2)	(396,6)	(280,69)	(11,21)	
L1D -290>	(238,6)	(11,61)	(21,5)	(285,21)	(296,18)	(-21,16)	(454,5)	(10,23)	(469,18)	(406,8)	(400,18)	(379,1)	(295,74)	(389,5)	(1,67)	(280,11)	
L1D -289>	(394,17)	(1,23)	(294,45)	(-10,1)	(283,22)	(10,27)	(279,28)	(0,11)	(11,68)	(278,49)	(289,11)	(284,20)	(467,18)	(410,4)	(-21,10)	(295,31)	
L1D -288>	(293,123)	(466,58)	(393,45)	(294,60)	(278,26)	(283,32)	(10,56)	(0,18)	(1,11)	(282,11)	(-11,24)	(465,18)	(404,10)	(11,41)	(172,2)	(288,9)	
L1D -287>	(465,9)	(1,13)	(11,28)	(277,42)	(293,36)	(292,54)	(392,12)	(-11,7)	(387,7)	(10,39)	(276,68)	(-21,21)	(464,1)	(282,20)	(287,18)	(0,3)	
L1D -286>	(292,20)	(0,5)	(281,8)	(3,4)	(1,11)	(287,24)	(291,12)	(10,45)	(275,21)	(11,44)	(-11,7)	(-21,7)	(280,1)	(286,13)	(407,2)	(276,37)	
L1D -285>	(1,26)	(290,23)	(285,10)	(395,22)	(10,28)	(11,45)	(269,1)	(275,26)	(0,9)	(378,3)	(460,12)	(274,52)	(443,4)	(459,19)	(389,11)	(390,16)	
L1D -284>	(11,101)	(395,7)	(377,1)	(458,39)	(384,7)	(1,41)	(274,52)	(273,21)	(289,36)	(232,9)	(388,8)	(290,17)	(-20,7)	(10,78)	(-11,5)	(383,24)	
L1D -283>	(278,30)	(291,1)	(456,70)	(288,115)	(0,14)	(383,42)	(400,6)	(1,20)	(11,35)	(396,5)	(273,43)	(-11,22)	(277,25)	(289,16)	(10,74)	(-21,13)	
L1D -282>	(1,24)	(287,75)	(387,38)	(0,11)	(11,41)	(277,17)	(454,26)	(397,10)	(10,39)	(455,14)	(272,49)	(382,32)	(282,30)	(288,30)	(-11,16)	(-21,1)	
L1D -281>	(1,11)	(286,32)	(270,46)	(281,14)	(381,11)	(196,1)	(271,49)	(276,21)	(11,54)	(-10,3)	(400,2)	(218,4)	(0,3)	(287,12)	(10,10)	(-11,11)	
L1D -280>	(1,31)	(286,10)	(270,50)	(269,62)	(0,6)	(11,49)	(18,1)	(275,12)	(-21,4)	(280,13)	(10,11)	(3,6)	(285,40)	(-11,11)	(274,15)	(379,4)	
L1D -279>	(284,71)	(285,60)	(11,32)	(-10,7)	(1,14)	(383,8)	(199,4)	(268,41)	(395,17)	(10,37)	(447,13)	(384,18)	(183,1)	(179,5)	(269,27)	(-11,31)	
L1D -278>	(10,50)	(272,20)	(283,21)	(273,22)	(1,77)	(11,47)	(0,9)	(446,17)	(-11,28)	(445,66)	(268,54)	(378,8)	(383,12)	(388,8)	(267,13)	(195,1)	
L1D -277>	(11,40)	(377,34)	(387,17)	(282,31)	(3,7)	(-11,22)	(215,9)	(-10,1)	(444,30)	(10,50)	(271,11)	(382,20)	(283,8)	(1,14)	(266,48)	(267,31)	
L1D -276>	(11,67)	(281,19)	(-11,6)	(441,26)	(276,24)	(265,21)	(376,15)	(266,22)	(10,53)	(412,1)	(386,6)	(351,6)	(392,12)	(1,11)	(382,4)	(271,5)	
L1D -275>	(1,26)	(264,87)	(381,21)	(11,73)	(275,12)	(270,22)	(10,25)	(280,21)	(0,5)	(281,13)	(358,1)	(265,32)	(391,11)	(218,9)	(-11,14)	(-21,9)	
L1D -274>	(280,55)	(269,25)	(3,8)	(-11,8)	(263,3)	(279,80)	(268,10)	(10,46)	(0,26)	(437,66)	(264,38)	(11,61)	(1,54)	(389,34)	(373,24)	(363,3)	
L1D -273>	(373,15)	(3,5)	(1,18)	(278,32)	(-11,15)	(11,23)	(263,40)	(262,46)	(389,5)	(268,22)	(384,3)	(273,6)	(216,3)	(167,1)	(10,33)	(0,3)	
L1D -272>	(388,9)	(267,31)	(272,14)	(277,85)	(377,7)	(-11,29)	(273,1)	(0,17)	(197,3)	(261,92)	(1,9)	(262,56)	(11,75)	(2,4)	(266,8)	(367,4)	
L1D -271>	(431,17)	(277,44)	(276,40)	(85,1)	(-11,12)	(1,52)	(265,11)	(10,39)	(271,12)	(11,81)	(266,26)	(260,19)	(382,4)	(387,21)	(220,7)	(261,28)	
L1D -270>	(11,90)	(275,51)	(-11,15)	(10,46)	(259,12)	(270,17)	(1,77)	(276,80)	(386,19)	(265,22)	(223,1)	(430,17)	(260,8)	(264,17)	(2,5)	(429,26)	
L1D -269>	(1,15)	(385,13)	(10,75)	(427,50)	(274,27)	(11,88)	(263,29)	(259,30)	(270,1)	(264,21)	(-11,10)	(0,15)	(275,10)	(374,57)	(258,32)	(379,16)	
L1D -268>	(389,4)	(263,21)	(274,9)	(273,11)	(10,44)	(1,19)	(368,13)	(426,38)	(-21,13)	(11,86)	(384,3)	(-10,5)	(268,14)	(258,22)	(257,38)	(0,1)	
L1D -267>	(0,10)	(424,28)	(-21,11)	(1,37)	(257,70)	(378,13)	(272,38)	(11,68)	(273,33)	(10,48)	(372,29)	(267,12)	(373,6)	(256,56)	(383,1)	(210,11)	
L1D -266>	(271,81)	(376,23)	(261,25)	(272,49)	(387,1)	(1,34)	(422,31)	(255,35)	(256,32)	(10,42)	(377,10)	(266,16)	(11,45)	(-21,11)	(260,8)	(371,21)	
L1D -265>	(1,14)	(11,27)	(0,12)	(270,73)	(65,1)	(254,29)	(255,31)	(-10,1)	(265,6)	(271,8)	(380,10)	(419,17)	(364,1)	(10,15)	(370,12)	(-21,3)	
L1D -264>	(0,18)	(369,8)	(417,27)	(364,25)	(258,9)	(10,32)	(259,25)	(270,14)	(269,78)	(217,3)	(219,7)	(-11,17)	(143,1)	(11,42)	(254,73)	(418,3)	
L1D -263>	(269,55)	(1,17)	(416,31)	(346,4)	(268,42)	(253,51)	(368,8)	(10,58)	(-11,23)	(0,9)	(212,4)	(258,16)	(11,45)	(379,10)	(363,7)	(264,1)	
L1D -262>	(414,21)	(256,14)	(252,50)	(-11,10)	(413,7)	(0,24)	(267,49)	(1,59)	(-1,3)	(268,49)	(10,79)	(-21,11)	(257,32)	(11,90)	(378,15)	(21,1)	
L1D -261>	(10,94)	(366,39)	(11,100)	(267,8)	(261,22)	(266,26)	(412,49)	(-11,20)	(256,37)	(250,9)	(411,83)	(1,12)	(383,1)	(255,10)	(-21,13)	(361,26)	
L1D -260>	(0,25)	(1,36)	(265,18)	(360,29)	(-11,22)	(354,8)	(365,77)	(409,95)	(250,13)	(249,75)	(255,39)	(266,7)	(375,17)	(386,1)	(10,79)	(11,105)	
L1D -259>	(1,20)	(253,10)	(264,57)	(10,88)	(254,42)	(265,45)	(225,4)	(408,103)	(349,46)	(417,6)	(-11,22)	(248,102)	(0,6)	(249,50)	(260,12)	(369,2)	
L1D -258>	(406,38)	(263,83)	(10,49)	(225,5)	(247,21)	(258,24)	(405,35)	(264,1)	(11,45)	(253,19)	(358,21)	(369,26)	(331,4)	(-22,8)	(-11,25)	(338,4)	
L1D -257>	(11,55)	(403,56)	(263,35)	(262,113)	(10,60)	(347,7)	(352,6)	(251,18)	(1,29)	(21,9)	(247,84)	(0,1)	(-11,27)	(404,34)	(246,33)	(252,17)	
L1D -256>	(261,90)	(10,56)	(246,11)	(262,43)	(9,1)	(401,22)	(1,28)	(0,51)	(356,31)	(250,11)	(355,6)	(-11,21)	(245,58)	(402,41)	(256,15)	(373,13)	
L1D -255>	(244,29)	(10,36)	(1,10)	(245,22)	(260,81)	(11,22)	(256,1)	(0,18)	(360,31)	(371,12)	(214,7)	(-11,24)	(-10,9)	(255,5)	(355,15)	(250,19)	
L1D -254>	(1,41)	(371,10)	(11,62)	(218,6)	(260,90)	(364,20)	(259,66)	(10,72)	(398,53)	(0,7)	(359,34)	(376,1)	(244,15)	(254,20)	(257,39)	(249,28)	
L1D -253>	(1,13)	(0,9)	(258,40)	(11,58)	(358,63)	(395,62)	(259,6)	(10,55)	(347,4)	(369,16)	(253,25)	(21,1)	(396,11)	(248,48)	(242,103)	(243,29)	
L1D -252>	(352,9)	(257,19)	(0,5)	(-10,3)	(10,37)	(11,51)	(242,1)	(373,7)	(1,13)	(393,67)	(394,7)	(241,21)	(246,8)	(247,11)	(-11,7)	(357,6)	
L1D -251>	(1,23)	(11,60)	(356,72)	(256,57)	(245,12)	(10,77)	(-11,28)	(251,21)	(392,85)	(0,18)	(391,34)	(246,31)	(367,32)	(257,35)	(240,17)	(363,1)	
L1D -250>	(365,3)	(256,6)	(255,19)	(11,88)	(245,21)	(-11,13)	(1,49)	(0,22)	(366,12)	(350,11)	(250,9)	(240,16)	(10,1)	(239,7)	(390,28)	(355,20)	
L1D -249>	(254,85)	(0,13)	(239,12)	(10,25)	(255,23)	(387,27)	(354,48)	(388,27)	(-11,6)	(238,4)	(1,11)	(244,17)	(175,1)	(11,23)	(249,7)	(243,7)	
L1D -248>	(1,7)	(387,29)	(20,1)	(348,13)	(353,39)	(253,64)	(-11,25)	(243,20)	(237,35)	(11,36)	(0,20)	(248,17)	(364,12)	(10,14)	(242,4)	(254,29)	
L1D -247>	(1,25)	(10,34)	(252,59)	(237,51)	(0,25)	(241,11)	(236,70)	(11,28)	(383,43)	(-11,11)	(253,20)	(247,13)	(6,1)	(358,3)	(-9,3)	(352,5)	
L1D -246>	(0,5)	(-11,10)	(381,26)	(251,29)	(346,14)	(235,24)	(1,49)	(11,64)	(252,12)	(10,35)	(382,23)	(241,18)	(361,4)	(-21,6)	(236,41)	(351,1)	
L1D -245>	(1,12)	(356,13)	(345,12)	(240,27)	(0,10)	(11,117)	(209,8)	(9,1)	(235,67)	(239,8)	(251,14)	(10,39)	(380,23)	(211,17)	(-21,21)	(250,8)	
L1D -244>	(349,51)	(344,30)	(238,16)	(377,97)	(249,12)	(233,36)	(10,55)	(244,14)	(250,18)	(11,84)	(-11,14)	(353,17)	(338,1)	(234,80)	(239,15)	(208,4)	
L1D -243>	(0,14)	(1,22)	(243,17)	(248,84)	(-11,29)	(376,53)	(238,14)	(343,29)	(360,7)	(348,15)	(10,34)	(237,6)	(11,38)	(375,18)	(233,87)	(-178,1)	
L1D -242>	(1,39)	(248,13)	(342,33)	(232,61)	(0,16)	(247,46)	(11,45)	(110,1)	(300,2)	(10,28)	(374,20)	(375,4)	(20,7)	(337,4)	(237,19)	(-11,10)	
L1D -241>	(246,59)	(351,9)	(372,66)	(357,13)	(236,26)	(247,27)	(341,8)	(10,20)	(0,13)	(336,2)	(346,7)	(-11,11)	(235,12)	(-182,1)	(-21,7)	(11,48)	
L1D -240>	(246,48)	(11,56)	(-10,6)	(235,35)	(371,13)	(356,33)	(336,4)	(340,18)	(-11,24)	(217,5)	(10,21)	(346,1)	(0,18)	(245,65)	(230,11)	(234,12)	
L1D -239>	(123,4)	(233,5)	(349,4)	(343,22)	(244,40)	(245,24)	(318,1)	(11,46)	(344,14)	(-11,14)	(214,9)	(212,4)	(10,3)	(0,10)	(234,25)	(220,3)	
L1D -238>	(238,25)	(348,3)	(338,28)	(1,5)	(233,1)	(244,15)	(11,34)	(366,8)	(-11,19)	(0,7)	(232,11)	(349,7)	(333,3)	(10,22)	(322,12)	(355,4)	
L1D -237>	(0,1)	(242,15)	(11,58)	(347,14)	(105,8)	(353,17)	(348,12)	(116,5)	(231,8)	(6,18)	(243,8)	(237,13)	(-10,6)	(337,30)	(232,21)	(10,27)	
L1D -236>	(1,14)	(361,85)	(241,25)	(362,49)	(242,3)	(111,4)	(10,45)	(342,7)	(231,9)	(0,19)	(341,3)	(11,85)	(236,7)	(5,20)	(211,4)	(352,1)	
L1D -235>	(240,96)	(336,11)	(241,76)	(235,6)	(360,97)	(361,25)	(-97,1)	(359,64)	(10,77)	(11,29)	(351,16)	(230,11)	(335,17)	(345,14)	(0,5)	(340,73)	
L1D -234>	(10,45)	(334,42)	(338,7)	(240,42)	(358,39)	(350,18)	(11,15)	(229,6)	(357,25)	(239,55)	(335,10)	(-11,9)	(-10,6)	(344,3)	(-19,1)	(339,49)	
L1D -233>	(348,5)	(11,27)	(238,56)	(239,27)	(10,21)	(356,1)	(221,7)	(233,11)	(337,4)	(349,15)	(-21,4)	(313,7)	(214,5)	(333,6)	(332,8)	(-11,19)	
L1D -232>	(237,56)	(337,6)	(232,3)	(327,5)	(227,15)	(332,12)	(-11,12)	(6,53)	(11,35)	(10,37)	(353,1)	(5,14)	(238,16)	(-21,4)	(1,8)	(0,2)	
L1D -231>	(351,60)	(236,16)	(336,14)	(-11,20)	(1,14)	(6,6)	(231,8)	(0,28)	(110,2)	(-21,7)	(5,84)	(206,2)	(214,14)	(111,10)	(331,2)	(216,7)	
L1D -230>	(349,89)	(335,64)	(224,13)	(235,64)	(336,9)	(0,20)	(1,20)	(10,102)	(326,1)	(225,4)	(330,14)	(350,20)	(215,3)	(325,15)	(334,4)	(-10,9)	
L1D -229>	(329,17)	(323,4)	(-140,1)	(234,32)	(10,95)	(-11,21)	(229,7)	(347,29)	(0,4)	(348,28)	(328,4)	(334,37)	(1,14)	(223,14)	(215,8)	(324,12)	
L1D -228>	(327,15)	(345,25)	(347,14)	(233,22)	(-11,17)	(214,4)	(223,1)	(346,24)	(10,48)	(355,3)	(1,4)	(234,15)	(-10,7)	(333,5)	(0,12)	(-21,7)	
L1D -227>	(332,12)	(320,6)	(-10,6)	(227,10)	(6,97)	(232,16)	(0,21)	(111,6)	(10,35)	(105,1)	(21,3)	(116,14)	(327,5)	(342,4)	(344,13)	(274,3)	
L1D -226>	(5,97)	(226,11)	(4,6)	(232,3)	(105,10)	(231,14)	(0,22)	(-153,1)	(-11,8)	(6,36)	(-140,2)	(220,3)	(342,5)	(10,12)	(341,17)	(-21,2)	
L1D -225>	(219,15)	(-11,32)	(214,5)	(339,18)	(325,42)	(340,74)	(10,37)	(-179,5)	(230,19)	(220,12)	(297,3)	(110,8)	(330,28)	(315,2)	(326,8)	(350,3)	
L1D -224>	(213,1)	(338,20)	(324,34)	(10,43)	(-11,16)	(229,25)	(329,22)	(1,2)	(337,13)	(224,13)	(334,3)	(219,2)	(212,4)	(0,3)	(207,2)	(218,3)	
L1D -223>	(10,34)	(317,4)	(223,3)	(323,9)	(228,19)	(229,2)	(327,2)	(328,17)	(322,2)	(0,2)	(-11,8)	(1,5)	(336,12)	(311,4)	(112,1)	(153,1)	
L1D -222>	(316,6)	(10,28)	(327,11)	(208,7)	(106,4)	(1,15)	(226,1)	(0,33)	(228,5)	(-11,11)	(221,4)	(111,13)	(322,9)	(227,6)	(-150,4)	(110,10)	
L1D -221>	(10,11)	(316,7)	(110,77)	(111,58)	(6,32)	(222,5)	(0,57)	(115,2)	(221,115)	(-153,7)	(-5,18)	(100,25)	(116,28)	(-130,6)	(226,14)	(-155,44)	
L1D -220>	(-155,30)	(6,33)	(-11,12)	(-156,35)	(221,57)	(220,89)	(116,10)	(236,1)	(5,12)	(-162,1)	(325,6)	(1,4)	(105,2)	(110,5)	(-1,3)	(339,3)	
L1D -219>	(-157,61)	(116,6)	(220,103)	(6,23)	(-11,11)	(-158,7)	(5,26)	(338,17)	(219,96)	(-160,9)	(324,7)	(-161,14)	(10,4)	(-156,87)	(108,1)	(-154,12)	
L1D -218>	(5,52)	(218,123)	(-159,11)	(-158,82)	(219,92)	(-11,5)	(116,20)	(-157,92)	(10,3)	(-161,4)	(336,4)	(-162,16)	(6,17)	(-155,11)	(328,1)	(259,4)	
L1D -217>	(-156,18)	(-11,12)	(-163,18)	(-159,70)	(217,103)	(116,12)	(218,96)	(5,23)	(121,3)	(-160,4)	(-158,85)	(6,37)	(334,14)	(-162,3)	(122,2)	(0,3)	
L1D -216>	(121,5)	(0,24)	(-160,73)	(-159,90)	(-183,1)	(-161,12)	(105,10)	(216,117)	(111,4)	(106,6)	(217,111)	(110,10)	(-5,45)	(6,4)	(-157,6)	(5,37)	
L1D -215>	(215,99)	(-160,99)	(111,61)	(-161,79)	(-6,20)	(121,13)	(-162,12)	(216,76)	(11,1)	(112,8)	(0,14)	(-5,21)	(116,23)	(263,7)	(-158,12)	(-165,17)	
L1D -214>	(214,105)	(215,99)	(-162,91)	(115,26)	(110,34)	(-159,2)	(122,12)	(21,4)	(-165,5)	(-166,9)	(-167,4)	(-163,9)	(-161,102)	(116,78)	(132,5)	(111,74)	
L1D -213>	(213,93)	(110,19)	(6,1)	(116,6)	(0,12)	(111,50)	(121,23)	(-162,49)	(214,55)	(-163,44)	(-164,5)	(154,8)	(158,3)	(120,13)	(-167,8)	(-160,4)	
L1D -212>	(120,9)	(110,42)	(212,59)	(116,27)	(131,9)	(127,3)	(-164,90)	(213,58)	(-165,5)	(-168,28)	(-167,1)	(-163,58)	(5,13)	(111,41)	(-161,12)	(6,10)	
L1D -211>	(0,13)	(212,98)	(111,49)	(211,123)	(-165,120)	(-166,8)	(5,55)	(126,57)	(-10,17)	(-162,16)	(-164,127)	(110,39)	(119,4)	(-169,38)	(-125,1)	(130,4)	
L1D -210>	(6,6)	(5,19)	(-11,1)	(210,87)	(125,5)	(-166,93)	(-10,6)	(0,5)	(211,57)	(111,3)	(-167,6)	(-163,15)	(-169,10)	(-165,74)	(-170,32)	(-5,5)	
L1D -209>	(209,73)	(110,4)	(-167,82)	(-165,1)	(-11,8)	(-168,9)	(115,3)	(111,8)	(5,13)	(-170,15)	(210,73)	(-164,15)	(-171,24)	(126,4)	(10,2)	(-166,105)	
L1D -208>	(-10,6)	(111,5)	(1,10)	(-168,75)	(-169,4)	(209,84)	(0,5)	(208,76)	(-172,18)	(-171,6)	(-165,9)	(-96,1)	(-167,49)	(5,9)	(-5,4)	(115,16)	
L1D -207>	(-168,67)	(-10,21)	(126,9)	(-169,54)	(1,4)	(208,75)	(-166,15)	(207,59)	(-170,3)	(115,30)	(0,3)	(111,19)	(-5,1)	(-173,12)	(110,5)	(125,4)	
L1D -206>	(-170,80)	(-11,25)	(206,57)	(110,45)	(5,1)	(114,4)	(-10,14)	(125,7)	(207,88)	(121,30)	(-174,16)	(-167,10)	(-171,6)	(-169,75)	(111,14)	(-173,14)	
L1D -205>	(-11,31)	(110,28)	(-196,1)	(205,31)	(206,73)	(-171,50)	(116,7)	(-168,9)	(105,6)	(-170,66)	(-174,11)	(121,2)	(-169,1)	(120,6)	(111,5)	(6,3)	
L1D -204>	(5,16)	(110,44)	(106,15)	(205,99)	(-172,46)	(204,69)	(133,10)	(-176,13)	(-169,19)	(1,9)	(-171,70)	(121,21)	(105,11)	(-21,7)	(-11,36)	(111,2)	
L1D -203>	(293,1)	(203,37)	(204,104)	(-10,29)	(148,9)	(-11,59)	(105,7)	(121,25)	(-174,5)	(137,5)	(-173,36)	(282,16)	(111,77)	(-172,57)	(110,35)	(-170,17)	
L1D -202>	(-174,44)	(-173,53)	(110,24)	(1,11)	(116,3)	(202,32)	(203,85)	(-10,11)	(-21,5)	(-171,7)	(0,1)	(147,3)	(117,3)	(-177,6)	(-175,3)	(-11,11)	
L1D -201>	(-175,39)	(131,3)	(-174,52)	(201,58)	(-172,13)	(0,4)	(105,6)	(202,69)	(100,4)	(-11,11)	(-148,1)	(-183,5)	(146,3)	(3,4)	(120,5)	(116,17)	
L1D -200>	(200,41)	(201,55)	(-176,31)	(-174,3)	(116,16)	(0,13)	(111,17)	(98,1)	(-175,34)	(6,8)	(115,19)	(5,19)	(-261,4)	(-173,4)	(-266,2)	(121,5)	
L1D -199>	(11,20)	(0,15)	(-169,1)	(-177,13)	(200,39)	(-176,31)	(-11,12)	(116,39)	(-10,8)	(105,13)	(-174,8)	(199,32)	(111,39)	(110,7)	(107,10)	(-5,12)	
L1D -198>	(198,12)	(-178,11)	(-177,24)	(-11,47)	(143,14)	(-10,7)	(1,52)	(110,15)	(106,11)	(199,46)	(116,7)	(11,45)	(293,1)	(-21,6)	(105,5)	(-175,6)	
L1D -197>	(116,4)	(-179,20)	(198,34)	(196,23)	(0,39)	(1,70)	(197,11)	(5,1)	(126,6)	(110,13)	(212,2)	(163,2)	(105,29)	(-178,26)	(-176,6)	(205,2)	
L1D -196>	(195,6)	(111,81)	(-179,19)	(-180,8)	(197,46)	(-10,111)	(1,64)	(196,35)	(0,40)	(5,7)	(296,11)	(-124,1)	(141,3)	(-11,5)	(-21,5)	(104,6)	
L1D -195>	(195,38)	(196,38)	(-180,26)	(-181,21)	(111,54)	(-10,48)	(106,6)	(6,30)	(11,19)	(-5,11)	(125,9)	(116,17)	(0,23)	(194,1)	(1,71)	(110,20)	
L1D -194>	(111,45)	(193,25)	(194,72)	(189,6)	(11,25)	(-185,1)	(-182,13)	(195,28)	(0,27)	(139,4)	(299,7)	(-5,6)	(5,25)	(1,74)	(3,4)	(6,17)	
L1D -193>	(-183,8)	(194,45)	(288,1)	(5,32)	(-21,3)	(192,8)	(298,5)	(11,44)	(293,5)	(-11,5)	(21,3)	(138,5)	(0,46)	(1,71)	(193,17)	(110,4)	
L1D -192>	(-184,5)	(193,26)	(192,21)	(-183,9)	(48,26)	(0,28)	(137,6)	(-11,12)	(104,9)	(-20,4)	(1,81)	(232,22)	(11,7)	(3,12)	(10,1)	(110,16)	
L1D -191>	(11,28)	(296,4)	(192,23)	(10,6)	(0,19)	(136,3)	(218,6)	(291,1)	(-1,4)	(-185,5)	(1,78)	(3,13)	(6,7)	(99,6)	(191,9)	(-184,5)	
L1D -190>	(189,5)	(122,3)	(120,8)	(-185,7)	(11,27)	(-11,3)	(296,5)	(20,1)	(0,3)	(1,82)	(-186,8)	(191,14)	(3,10)	(249,2)	(190,15)	(285,8)	
L1D -189>	(-11,61)	(190,23)	(110,107)	(0,20)	(104,11)	(189,23)	(3,10)	(11,23)	(21,1)	(-186,11)	(-298,26)	(-1,21)	(1,77)	(-10,17)	(-187,7)	(-5,27)	
L1D -188>	(-188,10)	(1,71)	(0,39)	(189,19)	(188,19)	(10,15)	(11,45)	(187,23)	(-5,14)	(3,15)	(-299,76)	(6,6)	(117,4)	(116,8)	(288,1)	(5,29)	
L1D -187>	(-5,30)	(187,44)	(11,34)	(0,24)	(188,17)	(186,4)	(10,6)	(-6,3)	(-21,2)	(1,82)	(-189,2)	(293,2)	(95,4)	(3,16)	(5,6)	(-1,1)	
L1D -186>	(3,19)	(0,36)	(10,13)	(11,28)	(186,14)	(285,2)	(-5,2)	(154,3)	(-189,4)	(5,4)	(1,83)	(291,2)	(187,18)	(2,4)	(-190,3)	(-6,1)	
L1D -185>	(-191,4)	(180,25)	(3,19)	(11,37)	(-6,1)	(185,9)	(10,15)	(290,9)	(1,87)	(43,2)	(5,10)	(149,2)	(-5,4)	(184,8)	(0,33)	(-192,2)	
L1D -184>	(1,86)	(184,25)	(183,7)	(0,34)	(15,1)	(12,8)	(10,15)	(11,45)	(168,12)	(185,16)	(-1,14)	(116,19)	(284,5)	(-11,12)	(5,17)	(3,16)	
L1D -183>	(1,80)	(-294,53)	(-293,85)	(293,10)	(0,30)	(-11,47)	(3,19)	(-10,19)	(188,4)	(127,1)	(10,43)	(183,44)	(11,55)	(110,34)	(128,6)	(178,7)	
L1D -182>	(-293,12)	(1,80)	(5,6)	(3,21)	(0,30)	(11,42)	(182,21)	(183,19)	(293,19)	(10,29)	(-193,4)	(298,3)	(-11,1)	(101,2)	(-194,2)	(2,4)	
L1D -181>	(1,75)	(3,20)	(0,50)	(10,6)	(180,5)	(-194,4)	(11,24)	(-11,6)	(-5,12)	(116,4)	(137,4)	(-187,1)	(-10,3)	(181,15)	(-167,6)	(182,8)	
L1D -180>	(1,97)	(12,2)	(3,27)	(0,38)	(10,29)	(179,12)	(291,9)	(180,16)	(181,9)	(11,20)	(290,15)	(5,4)	(-291,5)	(-290,14)	(-6,10)	(-1,5)	
L1D -179>	(121,1)	(1,81)	(0,54)	(3,39)	(-290,18)	(11,39)	(290,7)	(10,35)	(6,12)	(179,20)	(289,8)	(-289,38)	(111,13)	(-5,20)	(2,8)	(-10,14)	
L1D -178>	(178,25)	(-289,68)	(1,84)	(0,53)	(288,23)	(-5,28)	(3,60)	(-6,11)	(-288,56)	(294,1)	(273,7)	(10,15)	(-309,20)	(-20,7)	(11,30)	(-11,19)	
L1D -177>	(1,97)	(-288,36)	(10,25)	(5,25)	(177,28)	(-310,4)	(-10,6)	(282,16)	(11,55)	(3,61)	(116,7)	(6,6)	(2,4)	(15,3)	(0,50)	(105,1)	
L1D -176>	(0,34)	(1,69)	(-132,0)	(286,6)	(6,6)	(11,26)	(3,32)	(-172,1)	(176,5)	(80,3)	(340,1)	(-6,2)	(-11,9)	(265,2)	(5,8)	(-10,4)	
L1D -175>	(1,111)	(-306,5)	(151,2)	(10,6)	(-11,16)	(175,7)	(105,5)	(132,2)	(3,51)	(11,13)	(0,30)	(-15,1)	(176,4)	(-20,2)	(296,4)	(36,1)	
L1D -174>	(0,55)	(1,109)	(6,10)	(116,4)	(-285,15)	(10,6)	(381,4)	(174,14)	(-21,4)	(3,64)	(-284,43)	(111,14)	(-5,4)	(-11,4)	(-1,7)	(380,1)	
L1D -173>	(-305,12)	(1,107)	(-284,23)	(-283,68)	(178,3)	(0,43)	(11,11)	(111,8)	(-20,4)	(-1,4)	(116,6)	(3,48)	(-5,20)	(381,6)	(278,1)	(4,4)	
L1D -172>	(1,126)	(172,5)	(-5,8)	(11,25)	(10,6)	(171,6)	(283,6)	(282,7)	(288,9)	(0,53)	(2,7)	(3,69)	(380,13)	(6,7)	(21,1)	(-11,9)	
L1D -171>	(1,125)	(380,11)	(0,46)	(376,1)	(171,16)	(379,4)	(5,14)	(-2,2)	(3,25)	(4,2)	(377,2)	(-1,2)	(11,10)	(-5,8)	(271,2)	(172,4)	
L1D -170>	(11,5)	(1,109)	(-280,4)	(0,35)	(181,4)	(3,8)	(5,6)	(-2,3)	(2,17)	(-5,8)	(380,14)	(377,7)	(375,7)	(-1,6)	(376,7)	(269,1)	
L1D -169>	(169,5)	(0,32)	(377,6)	(1,89)	(-301,6)	(-21,1)	(-4,4)	(375,15)	(11,10)	(-279,29)	(376,11)	(3,7)	(380,7)	(-11,6)	(5,11)	(-5,8)	
L1D -168>	(168,7)	(375,1)	(-278,7)	(-1,9)	(-279,7)	(-11,7)	(1,87)	(0,43)	(167,6)	(380,13)	(2,3)	(3,3)	(10,5)	(376,9)	(-301,13)	(5,8)	
L1D -167>	(1,73)	(0,43)	(-5,2)	(10,9)	(167,6)	(168,3)	(-11,11)	(2,7)	(-299,2)	(110,13)	(-277,6)	(11,8)	(-300,11)	(75,8)	(-276,2)	(377,2)	
L1D -166>	(1,88)	(-5,13)	(100,1)	(375,10)	(2,18)	(-1,11)	(377,9)	(0,51)	(376,4)	(-4,8)	(209,2)	(380,2)	(5,3)	(166,7)	(3,2)	(10,4)	
L1D -165>	(-5,5)	(1,73)	(-4,6)	(375,17)	(220,3)	(376,5)	(15,1)	(0,28)	(377,9)	(-1,8)	(11,6)	(2,5)	(437,3)	(165,7)	(164,3)	(5,3)	
L1D -164>	(1,112)	(2,9)	(0,54)	(-5,14)	(264,1)	(269,4)	(-4,6)	(375,9)	(111,18)	(380,3)	(377,5)	(11,7)	(164,3)	(376,5)	(94,3)	(-274,12)	
L1D -163>	(218,8)	(0,77)	(377,11)	(380,11)	(-4,9)	(163,24)	(11,20)	(-5,31)	(-1,16)	(-274,38)	(-21,1)	(1,117)	(375,16)	(110,16)	(-11,23)	(-295,25)	
L1D -162>	(376,10)	(162,11)	(11,18)	(1,113)	(-11,18)	(-1,1)	(26,2)	(-2,4)	(375,14)	(5,12)	(377,16)	(0,89)	(217,3)	(10,12)	(-5,30)	(-4,4)	
L1D -161>	(1,102)	(376,11)	(161,7)	(116,9)	(-272,11)	(-6,6)	(3,6)	(-5,16)	(377,22)	(-294,15)	(-271,1)	(216,3)	(0,71)	(11,10)	(375,9)	(-4,4)	
L1D -160>	(0,63)	(1,75)	(2,18)	(-5,8)	(-31,1)	(10,10)	(375,19)	(377,17)	(-16,14)	(111,6)	(-1,15)	(376,9)	(11,21)	(-270,51)	(-21,8)	(219,6)	
L1D -159>	(-269,23)	(1,71)	(-9,1)	(159,19)	(0,74)	(11,13)	(376,9)	(111,7)	(-5,8)	(377,12)	(100,9)	(-10,4)	(10,7)	(375,3)	(89,1)	(-270,5)	
L1D -158>	(-11,10)	(1,94)	(-307,3)	(0,68)	(158,37)	(11,26)	(10,21)	(375,9)	(376,12)	(-268,26)	(-269,29)	(433,3)	(-1,17)	(5,7)	(268,1)	(2,11)	
L1D -157>	(1,59)	(-267,4)	(11,15)	(375,12)	(377,7)	(-268,9)	(5,8)	(-5,18)	(-1,9)	(0,77)	(-288,11)	(376,12)	(157,24)	(2,8)	(-111,1)	(111,12)	
L1D -156>	(11,15)	(157,3)	(1,47)	(0,65)	(-266,43)	(375,15)	(156,15)	(116,8)	(-5,20)	(-267,9)	(133,5)	(376,12)	(111,14)	(21,1)	(-20,4)	(-11,7)	
L1D -155>	(1,21)	(111,21)	(0,65)	(131,2)	(155,28)	(-266,12)	(11,17)	(-265,29)	(-286,1)	(6,22)	(375,3)	(376,6)	(-5,8)	(-10,6)	(10,5)	(-16,7)	
L1D -154>	(-285,12)	(-11,11)	(-275,1)	(0,26)	(154,72)	(1,33)	(11,21)	(126,3)	(6,5)	(5,31)	(209,3)	(-10,5)	(111,14)	(-264,14)	(-265,82)	(10,15)	
L1D -153>	(1,22)	(-263,52)	(116,13)	(-284,24)	(11,54)	(10,20)	(153,95)	(111,23)	(208,12)	(5,33)	(-264,19)	(110,10)	(0,25)	(137,1)	(6,26)	(-10,8)	
L1D -152>	(-262,87)	(11,19)	(152,15)	(-263,24)	(111,35)	(-110,6)	(101,3)	(252,10)	(1,19)	(218,7)	(17,4)	(257,1)	(262,6)	(207,4)	(6,24)	(-10,12)	
L1D -151>	(11,48)	(-262,51)	(0,22)	(110,7)	(-282,15)	(151,54)	(-261,51)	(10,10)	(256,1)	(-1,11)	(-283,22)	(115,13)	(111,35)	(105,10)	(1,13)	(116,24)	
L1D -150>	(11,32)	(-5,12)	(1,7)	(-261,51)	(-11,15)	(-10,20)	(151,1)	(0,15)	(201,3)	(126,4)	(261,5)	(111,40)	(-6,3)	(-21,10)	(6,12)	(150,23)	
L1D -149>	(-260,90)	(-282,5)	(110,45)	(118,1)	(149,61)	(-11,17)	(0,22)	(116,28)	(-259,67)	(150,9)	(105,9)	(11,50)	(10,19)	(-281,11)	(220,4)	(111,4)	
L1D -148>	(148,127)	(-5,16)	(264,1)	(-11,9)	(-258,41)	(10,13)	(11,32)	(6,18)	(-259,9)	(0,27)	(-10,16)	(219,7)	(-280,9)	(203,14)	(1,42)	(111,32)	
L1D -147>	(-278,21)	(252,10)	(147,33)	(-258,33)	(10,21)	(-280,28)	(111,28)	(-257,85)	(1,10)	(110,22)	(131,23)	(6,22)	(-5,9)	(-6,9)	(-175,1)	(101,3)	
L1D -146>	(-257,80)	(146,59)	(-256,42)	(1,16)	(0,22)	(11,40)	(-11,20)	(10,25)	(5,24)	(111,7)	(116,5)	(262,1)	(89,4)	(147,10)	(-278,12)	(-10,9)	
L1D -145>	(10,19)	(-21,6)	(0,13)	(144,5)	(-256,59)	(11,27)	(-5,13)	(5,11)	(1,14)	(145,30)	(126,3)	(-22,3)	(-10,19)	(-277,5)	(116,4)	(-181,1)	
L1D -144>	(144,30)	(-11,17)	(80,13)	(-254,95)	(145,5)	(105,1)	(-22,5)	(10,10)	(0,14)	(111,18)	(5,12)	(11,12)	(-276,7)	(-255,13)	(1,4)	(16,8)	
L1D -143>	(11,44)	(143,107)	(-11,6)	(10,15)	(-5,16)	(-275,6)	(115,4)	(111,15)	(-263,1)	(-254,19)	(127,14)	(110,17)	(-10,17)	(254,6)	(1,5)	(0,18)	
L1D -142>	(111,13)	(-252,49)	(-253,34)	(142,110)	(-11,18)	(5,15)	(0,31)	(143,5)	(105,10)	(-274,29)	(-275,21)	(197,4)	(7,11)	(247,5)	(11,21)	(83,1)	
L1D -141>	(-251,49)	(-252,76)	(5,4)	(141,37)	(10,11)	(11,13)	(-11,10)	(211,6)	(121,5)	(-276,1)	(110,6)	(111,6)	(6,3)	(251,4)	(-274,3)	(0,8)	
L1D -140>	(-272,14)	(11,36)	(-11,3)	(0,18)	(-273,2)	(110,4)	(10,19)	(139,8)	(116,10)	(111,37)	(277,2)	(126,3)	(140,47)	(-260,3)	(-251,34)	(-261,2)	
L1D -139>	(139,50)	(-248,26)	(-249,76)	(115,16)	(11,35)	(259,1)	(-47,3)	(-5,13)	(5,3)	(0,16)	(6,29)	(110,8)	(1,15)	(140,8)	(10,23)	(-11,10)	
L1D -138>	(10,27)	(0,24)	(-249,84)	(-293,1)	(11,46)	(220,6)	(-248,15)	(119,3)	(138,125)	(6,20)	(-270,7)	(5,13)	(-264,4)	(238,9)	(-284,3)	(-6,5)	
L1D -137>	(220,31)	(219,12)	(137,84)	(-248,33)	(0,26)	(10,11)	(-247,18)	(111,4)	(5,23)	(-270,1)	(-264,5)	(-5,10)	(131,5)	(-11,23)	(1,4)	(145,3)	
L1D -136>	(5,15)	(-247,53)	(0,59)	(136,30)	(241,3)	(-246,3)	(10,54)	(1,11)	(217,47)	(-2,2)	(-271,1)	(11,79)	(116,10)	(218,6)	(12,3)	(110,4)	
L1D -135>	(217,15)	(0,49)	(135,43)	(136,22)	(11,17)	(105,8)	(10,17)	(-267,22)	(111,18)	(110,6)	(-244,6)	(-246,42)	(-11,12)	(-5,8)	(-266,8)	(-33,1)	
L1D -134>	(116,8)	(134,25)	(0,59)	(11,37)	(-243,9)	(6,11)	(110,31)	(111,29)	(239,3)	(5,9)	(-10,22)	(-26,3)	(-265,8)	(-6,1)	(1,8)	(290,3)	
L1D -133>	(0,60)	(-244,70)	(-22,1)	(6,27)	(58,3)	(27,4)	(-265,16)	(133,70)	(-11,9)	(10,22)	(11,24)	(5,14)	(1,9)	(-264,14)	(111,24)	(16,3)	
L1D -132>	(-299,28)	(0,65)	(-11,1)	(11,33)	(1,14)	(217,48)	(131,9)	(110,12)	(10,15)	(-295,3)	(116,29)	(-267,3)	(6,22)	(-266,4)	(137,3)	(132,114)	
L1D -131>	(-242,9)	(131,90)	(216,66)	(110,29)	(111,34)	(212,28)	(5,51)	(213,6)	(11,26)	(-11,14)	(107,1)	(-5,9)	(0,45)	(6,25)	(-241,77)	(130,6)	
L1D -130>	(106,1)	(0,76)	(131,13)	(130,47)	(10,21)	(1,13)	(-241,54)	(-6,7)	(111,22)	(-240,30)	(110,18)	(-10,21)	(121,5)	(-11,16)	(11,39)	(-5,34)	
L1D -129>	(1,11)	(6,13)	(129,29)	(111,5)	(10,22)	(116,13)	(11,34)	(110,1)	(0,51)	(-11,10)	(-240,16)	(-6,15)	(-239,22)	(-5,9)	(128,10)	(106,7)	
L1D -128>	(238,9)	(220,51)	(6,11)	(-238,3)	(0,66)	(-11,17)	(66,3)	(128,78)	(11,26)	(10,13)	(194,3)	(111,16)	(-10,29)	(-239,3)	(110,17)	(-282,1)	
L1D -127>	(-307,14)	(0,58)	(-5,28)	(219,37)	(-259,1)	(111,43)	(-294,9)	(127,115)	(-11,24)	(110,16)	(-293,26)	(141,6)	(6,23)	(216,22)	(10,9)	(-282,6)	
L1D -126>	(211,2)	(6,19)	(-236,49)	(0,43)	(5,44)	(126,97)	(110,45)	(208,5)	(111,64)	(10,18)	(106,6)	(-259,32)	(218,59)	(116,16)	(115,12)	(105,12)	
L1D -125>	(106,8)	(125,64)	(-235,74)	(-236,28)	(110,26)	(1,8)	(206,8)	(12,6)	(-11,19)	(0,37)	(116,13)	(218,14)	(308,1)	(5,21)	(10,15)	(-260,3)	
L1D -124>	(11,16)	(0,50)	(235,11)	(111,46)	(110,27)	(100,56)	(-235,61)	(-234,53)	(-11,14)	(81,23)	(-5,20)	(320,1)	(124,35)	(105,8)	(1,9)	(116,6)	
L1D -123>	(123,23)	(99,10)	(10,14)	(84,1)	(-233,19)	(0,31)	(-10,10)	(120,5)	(-234,28)	(111,14)	(11,21)	(110,12)	(215,7)	(115,4)	(-11,11)	(-175,4)	
L1D -122>	(79,13)	(-309,17)	(106,4)	(-288,27)	(6,23)	(111,8)	(10,6)	(-257,4)	(1,20)	(126,11)	(-261,15)	(122,72)	(-258,1)	(-233,8)	(95,10)	(-249,5)	
L1D -121>	(6,30)	(110,110)	(0,25)	(5,55)	(-10,24)	(111,68)	(-288,1)	(220,13)	(200,9)	(-5,16)	(121,82)	(-265,11)	(105,43)	(219,13)	(204,12)	(101,9)	
L1D -120>	(-255,7)	(205,7)	(110,49)	(-230,34)	(0,121)	(111,20)	(10,11)	(213,8)	(5,28)	(120,86)	(-231,37)	(-5,11)	(-270,1)	(-111,7)	(-6,7)	(116,122)	
L1D -119>	(0,86)	(10,10)	(-230,64)	(126,4)	(119,27)	(115,98)	(111,5)	(122,4)	(-229,41)	(1,3)	(-11,15)	(110,7)	(97,1)	(-5,10)	(-1,13)	(-20,2)	
L1D -118>	(0,74)	(10,11)	(111,3)	(-229,24)	(-285,3)	(229,1)	(94,4)	(-5,2)	(114,88)	(-287,4)	(118,29)	(-251,2)	(6,3)	(-228,7)	(-310,3)	(115,12)	
L1D -117>	(0,28)	(117,24)	(110,2)	(1,7)	(-256,2)	(-227,3)	(-243,3)	(113,69)	(111,8)	(-265,1)	(95,1)	(-5,5)	(5,3)	(10,2)	(-10,1)	(6,18)	
L1D -116>	(116,104)	(111,69)	(6,61)	(5,104)	(-188,1)	(0,56)	(-10,15)	(1,6)	(110,50)	(120,42)	(218,25)	(-271,20)	(-264,22)	(-293,13)	(105,53)	(-246,30)	
L1D -115>	(-247,11)	(119,7)	(110,38)	(-5,27)	(115,89)	(5,56)	(-264,1)	(-11,12)	(207,10)	(0,35)	(-244,3)	(-225,19)	(111,75)	(-6,25)	(-265,6)	(105,16)	
L1D -114>	(-246,17)	(-6,12)	(115,14)	(103,29)	(0,63)	(116,1)	(195,4)	(110,96)	(114,45)	(6,3)	(10,13)	(-10,3)	(118,32)	(-224,13)	(-245,8)	(-225,24)	
L1D -113>	(0,88)	(102,45)	(-42,1)	(-223,11)	(-5,10)	(117,44)	(113,28)	(132,8)	(109,118)	(-6,6)	(-224,18)	(-246,11)	(205,2)	(-245,15)	(-244,5)	(5,3)	
L1D -112>	(-300,8)	(0,115)	(101,71)	(1,9)	(-223,13)	(108,119)	(111,19)	(11,15)	(-5,33)	(112,119)	(116,35)	(10,24)	(-6,1)	(-222,9)	(-247,5)	(-244,39)	
L1D -111>	(0,31)	(-274,9)	(-10,1)	(106,8)	(-234,9)	(116,34)	(6,43)	(111,74)	(100,11)	(-5,52)	(-251,18)	(107,5)	(5,35)	(213,2)	(-110,23)	(110,9)	
L1D -110>	(116,5)	(105,41)	(0,28)	(204,4)	(106,13)	(-260,11)	(111,29)	(-11,20)	(110,84)	(-111,13)	(126,1)	(-252,5)	(5,65)	(-6,49)	(-255,5)	(115,22)	
L1D -109>	(11,6)	(109,38)	(86,3)	(5,12)	(98,19)	(0,84)	(110,37)	(100,3)	(10,1)	(113,29)	(105,101)	(-11,13)	(-5,2)	(-244,5)	(116,10)	(115,10)	
L1D -108>	(108,64)	(0,105)	(97,49)	(6,8)	(104,127)	(-11,20)	(1,5)	(105,74)	(200,5)	(112,57)	(-182,1)	(13,3)	(127,20)	(42,13)	(110,5)	(109,68)	
L1D -107>	(105,29)	(107,94)	(-262,16)	(0,61)	(104,34)	(108,64)	(-10,27)	(5,6)	(-277,7)	(-11,32)	(-299,4)	(111,68)	(96,28)	(6,50)	(103,55)	(116,1)	
L1D -106>	(-10,51)	(116,21)	(110,26)	(5,16)	(-11,13)	(111,69)	(0,22)	(-280,1)	(126,5)	(102,35)	(-309,2)	(105,10)	(121,8)	(106,38)	(-303,9)	(207,4)	
L1D -105>	(110,92)	(-248,8)	(0,15)	(207,10)	(-11,40)	(105,56)	(111,47)	(115,33)	(104,8)	(94,9)	(-5,10)	(201,1)	(-6,23)	(121,9)	(116,41)	(-267,6)	
L1D -104>	(-295,1)	(100,69)	(104,100)	(5,26)	(105,19)	(103,19)	(110,14)	(-306,3)	(93,17)	(115,22)	(-11,9)	(0,28)	(-272,15)	(102,18)	(6,24)	(-6,9)	
L1D -103>	(103,64)	(0,72)	(106,1)	(99,125)	(10,18)	(109,3)	(104,26)	(102,26)	(5,33)	(110,2)	(98,8)	(-11,6)	(-116,9)	(6,17)	(116,2)	(-273,16)	
L1D -102>	(103,38)	(98,53)	(97,6)	(10,10)	(-116,38)	(111,16)	(-235,1)	(102,106)	(6,21)	(5,31)	(99,5)	(91,123)	(0,43)	(101,12)	(21,6)	(106,37)	
L1D -101>	(101,67)	(111,8)	(0,9)	(102,20)	(-11,10)	(-10,14)	(-1,13)	(100,10)	(-5,5)	(116,12)	(6,1)	(97,6)	(110,11)	(-262,2)	(112,4)	(90,8)	
L1D -100>	(-288,4)	(97,9)	(0,40)	(101,42)	(5,34)	(6,13)	(89,8)	(96,39)	(-10,17)	(-270,19)	(115,31)	(100,126)	(110,58)	(111,48)	(-305,7)	(1,10)	
L1D -99>	(88,17)	(99,111)	(0,40)	(116,1)	(-6,18)	(100,30)	(110,21)	(95,49)	(-301,9)	(103,14)	(-105,8)	(-121,15)	(-277,12)	(-111,6)	(-279,6)	(-116,6)	
L1D -98>	(98,43)	(99,8)	(0,60)	(96,5)	(-121,11)	(5,14)	(93,2)	(-116,7)	(75,2)	(97,25)	(95,5)	(94,105)	(87,8)	(70,1)	(-278,10)	(-5,5)	
L1D -97>	(97,68)	(10,1)	(0,48)	(-5,6)	(96,15)	(5,22)	(101,5)	(98,14)	(-279,23)	(-116,4)	(-110,4)	(-6,8)	(93,107)	(112,3)	(94,8)	(6,9)	
L1D -96>	(106,9)	(111,16)	(96,86)	(115,3)	(-105,2)	(85,19)	(95,17)	(91,16)	(97,5)	(5,10)	(0,26)	(-110,6)	(-280,17)	(-278,4)	(6,17)	(-121,10)	
L1D -95>	(0,29)	(95,58)	(-257,1)	(84,18)	(114,6)	(91,69)	(119,4)	(110,19)	(5,15)	(111,25)	(94,7)	(-5,31)	(-10,3)	(-293,6)	(-11,7)	(1,5)	
L1D -94>	(0,24)	(98,9)	(90,46)	(112,2)	(95,4)	(93,9)	(5,18)	(116,3)	(91,6)	(94,70)	(-5,15)	(-275,4)	(-11,3)	(111,4)	(-121,9)	(-4,1)	
L1D -93>	(0,45)	(89,79)	(-179,1)	(5,2)	(163,2)	(94,22)	(93,50)	(-5,2)	(88,7)	(11,2)	(97,16)	(70,3)	(-125,5)	(-120,3)	(99,3)	(92,5)	
L1D -92>	(92,51)	(0,55)	(11,9)	(6,7)	(-116,23)	(-121,25)	(-110,9)	(89,10)	(88,80)	(91,17)	(4,4)	(98,5)	(-126,6)	(-4,3)	(-10,7)	(-115,16)	
L1D -91>	(106,12)	(90,12)	(-247,3)	(-10,14)	(0,20)	(115,13)	(91,64)	(111,11)	(5,5)	(87,26)	(88,11)	(80,12)	(92,17)	(95,17)	(110,3)	(-261,3)	
L1D -90>	(90,73)	(79,23)	(110,15)	(114,8)	(94,16)	(0,41)	(86,74)	(111,7)	(5,13)	(89,5)	(-289,3)	(-5,8)	(-11,16)	(-243,3)	(-6,14)	(-274,1)	
L1D -89>	(85,29)	(88,38)	(93,18)	(0,30)	(-5,10)	(-291,17)	(89,110)	(-11,13)	(-265,4)	(-302,1)	(113,17)	(116,9)	(110,12)	(-121,14)	(78,16)	(5,21)	
L1D -88>	(88,75)	(0,53)	(77,26)	(11,5)	(89,5)	(40,11)	(84,99)	(87,5)	(-290,1)	(6,2)	(-5,6)	(-288,6)	(92,6)	(103,8)	(-10,2)	(5,11)	
L1D -87>	(76,12)	(0,53)	(93,2)	(86,7)	(6,15)	(87,22)	(5,1)	(-3,1)	(83,95)	(1,1)	(-289,10)	(82,1)	(84,4)	(117,2)	(-1,4)	(-116,2)	
L1D -86>	(84,15)	(-245,4)	(82,95)	(85,15)	(-108,1)	(-288,3)	(-11,2)	(0,48)	(92,4)	(75,41)	(83,11)	(86,61)	(90,4)	(-15,6)	(-10,2)	(87,10)	
L1D -85>	(84,16)	(112,3)	(81,80)	(85,56)	(5,11)	(-115,5)	(-131,22)	(0,58)	(-3,11)	(86,17)	(-121,34)	(-132,3)	(56,1)	(-10,10)	(6,7)	(82,8)	
L1D -84>	(85,58)	(-5,10)	(88,24)	(84,125)	(111,15)	(-10,16)	(0,64)	(5,43)	(99,14)	(61,10)	(6,16)	(-172,5)	(73,109)	(82,11)	(80,115)	(87,1)	
L1D -83>	(80,7)	(-111,14)	(-121,9)	(83,61)	(-116,4)	(79,77)	(-5,12)	(5,4)	(0,54)	(-106,10)	(-11,5)	(-275,1)	(-90,7)	(87,18)	(-137,3)	(-126,8)	
L1D -82>	(-10,2)	(82,20)	(0,31)	(78,65)	(79,3)	(125,2)	(-120,1)	(6,6)	(-5,1)	(-135,1)	(5,2)	(-21,1)	(86,5)	(83,1)	(-126,5)	(-136,0)	
L1D -81>	(0,83)	(85,47)	(70,118)	(6,20)	(-98,1)	(81,86)	(-131,28)	(80,27)	(-11,12)	(78,29)	(87,22)	(79,35)	(-258,6)	(-136,16)	(82,14)	(77,96)	
L1D -80>	(69,34)	(40,15)	(5,19)	(-10,14)	(84,8)	(86,9)	(79,48)	(0,59)	(265,1)	(-303,4)	(80,100)	(6,24)	(76,68)	(78,12)	(-207,3)	(110,4)	
L1D -79>	(-250,1)	(79,67)	(0,51)	(-27,2)	(80,6)	(83,19)	(-110,5)	(68,40)	(5,11)	(6,30)	(-121,16)	(-297,4)	(1,2)	(-115,5)	(75,61)	(-11,7)	
L1D -78>	(0,51)	(74,84)	(78,32)	(-298,20)	(-111,3)	(-124,2)	(67,38)	(-409,14)	(111,9)	(79,6)	(73,12)	(5,30)	(77,9)	(82,7)	(-10,3)	(137,1)	
L1D -77>	(77,47)	(73,112)	(66,54)	(92,16)	(1,13)	(0,92)	(76,39)	(96,7)	(75,28)	(81,4)	(78,5)	(70,5)	(-1,3)	(-252,5)	(-111,1)	(-6,6)	
L1D -76>	(77,23)	(76,81)	(95,7)	(6,8)	(0,49)	(5,6)	(73,33)	(72,83)	(1,7)	(-5,7)	(-251,9)	(75,18)	(10,7)	(80,39)	(74,1)	(65,18)	
L1D -75>	(0,25)	(6,22)	(74,31)	(-5,16)	(75,73)	(79,18)	(90,15)	(64,23)	(7,3)	(157,3)	(70,1)	(76,22)	(68,2)	(72,17)	(73,15)	(1,3)	
L1D -74>	(6,40)	(0,68)	(70,95)	(-10,7)	(74,87)	(78,34)	(63,62)	(80,13)	(72,3)	(-6,14)	(5,14)	(73,30)	(-302,1)	(106,2)	(-310,2)	(75,6)	
L1D -73>	(127,4)	(-404,15)	(0,23)	(69,35)	(6,23)	(5,34)	(77,20)	(50,4)	(132,1)	(143,3)	(62,17)	(73,82)	(-110,6)	(74,16)	(92,4)	(-403,2)	
L1D -72>	(69,17)	(0,73)	(5,15)	(-403,11)	(70,18)	(-404,3)	(68,90)	(61,8)	(72,35)	(1,4)	(76,12)	(-148,3)	(6,7)	(71,12)	(-110,1)	(-116,8)	
L1D -71>	(69,30)	(71,73)	(0,88)	(114,8)	(1,4)	(70,49)	(5,27)	(72,17)	(68,37)	(44,1)	(6,13)	(-91,3)	(67,100)	(-76,11)	(-5,7)	(-135,9)	
L1D -70>	(69,35)	(0,57)	(67,23)	(-378,19)	(59,24)	(85,7)	(66,86)	(74,19)	(6,28)	(70,87)	(5,24)	(71,12)	(1,9)	(68,9)	(111,1)	(113,18)	
L1D -69>	(0,47)	(75,14)	(68,39)	(1,4)	(70,13)	(-60,1)	(80,6)	(67,13)	(-307,8)	(65,94)	(73,1)	(-11,3)	(-5,12)	(69,72)	(5,14)	(-1,3)	
L1D -68>	(0,34)	(64,58)	(65,8)	(63,16)	(79,2)	(72,10)	(57,26)	(-308,9)	(-270,2)	(69,32)	(99,1)	(5,5)	(111,9)	(87,2)	(-5,4)	(68,69)	
L1D -67>	(63,102)	(0,56)	(-134,1)	(5,12)	(-309,21)	(67,39)	(68,26)	(-116,11)	(6,14)	(-398,6)	(-105,4)	(-397,2)	(56,8)	(11,2)	(-269,2)	(71,9)	
L1D -66>	(66,59)	(72,13)	(67,24)	(55,23)	(70,7)	(1,4)	(0,50)	(63,1)	(5,13)	(62,80)	(-5,13)	(-6,8)	(65,29)	(11,5)	(64,8)	(-378,3)	
L1D -65>	(69,58)	(0,71)	(66,22)	(95,1)	(54,42)	(6,24)	(61,88)	(65,95)	(-5,15)	(-10,11)	(64,37)	(1,5)	(-78,31)	(-11,6)	(62,9)	(116,5)	
L1D -64>	(53,7)	(64,55)	(0,39)	(79,3)	(63,26)	(70,13)	(-312,9)	(61,3)	(1,5)	(-5,4)	(60,90)	(-21,6)	(69,1)	(68,9)	(-243,1)	(5,12)	
L1D -63>	(78,12)	(93,7)	(52,33)	(0,50)	(64,16)	(-116,4)	(1,8)	(62,15)	(-6,1)	(10,3)	(67,22)	(24,4)	(59,103)	(-5,5)	(63,88)	(5,12)	
L1D -62>	(-314,3)	(-395,5)	(-136,1)	(0,64)	(59,28)	(58,69)	(63,18)	(62,99)	(51,67)	(-402,2)	(-394,21)	(5,62)	(61,12)	(6,23)	(-11,5)	(66,9)	
L1D -61>	(-5,6)	(59,7)	(0,46)	(5,1)	(57,64)	(62,17)	(50,36)	(-315,11)	(38,4)	(60,8)	(39,0)	(61,20)	(3,2)	(-116,1)	(-46,1)	(-21,1)	
L1D -60>	(0,87)	(61,23)	(56,96)	(49,82)	(10,4)	(-6,9)	(59,25)	(-11,3)	(64,36)	(1,6)	(-1,3)	(57,12)	(60,98)	(-241,3)	(38,6)	(129,1)	
L1D -59>	(63,8)	(74,5)	(-107,3)	(48,22)	(0,56)	(-101,3)	(-117,5)	(-331,8)	(-10,5)	(60,22)	(69,4)	(59,74)	(54,10)	(55,74)	(-73,1)	(-5,9)	
L1D -58>	(0,85)	(54,97)	(57,50)	(-210,21)	(6,43)	(47,23)	(58,99)	(-195,6)	(-389,5)	(-213,6)	(-215,10)	(-6,19)	(-219,12)	(64,20)	(5,16)	(354,8)	
L1D -57>	(53,125)	(56,1)	(-16,4)	(61,28)	(0,105)	(76,9)	(-6,13)	(-259,5)	(54,20)	(46,48)	(5,16)	(-388,19)	(55,14)	(354,24)	(58,6)	(57,70)	
L1D -56>	(52,68)	(48,27)	(56,25)	(-419,4)	(-132,6)	(60,8)	(-21,4)	(-410,3)	(0,48)	(5,20)	(-398,2)	(-6,3)	(54,12)	(45,26)	(-409,9)	(53,12)	
L1D -55>	(54,50)	(70,11)	(-148,6)	(55,78)	(44,43)	(-158,7)	(6,13)	(51,106)	(0,86)	(-211,5)	(-401,7)	(48,5)	(5,1)	(59,43)	(-92,12)	(-128,3)	
L1D -54>	(0,54)	(69,4)	(53,14)	(6,20)	(54,64)	(10,6)	(-21,2)	(58,17)	(43,17)	(-147,1)	(-322,8)	(49,8)	(5,25)	(354,4)	(55,2)	(50,66)	
L1D -53>	(52,1)	(0,70)	(49,111)	(53,57)	(50,14)	(-5,9)	(-116,8)	(1,2)	(57,44)	(51,17)	(54,17)	(72,9)	(-121,7)	(42,58)	(-323,17)	(-115,9)	
L1D -52>	(0,49)	(-383,9)	(-112,3)	(53,18)	(41,22)	(56,22)	(49,24)	(50,18)	(354,5)	(48,91)	(51,15)	(-324,1)	(52,38)	(-213,3)	(-210,4)	(1,20)	
L1D -51>	(51,63)	(-352,6)	(40,9)	(-5,5)	(5,7)	(1,4)	(0,67)	(-404,4)	(47,94)	(-372,3)	(-6,1)	(354,11)	(49,21)	(50,13)	(6,15)	(55,11)	
L1D -50>	(49,33)	(45,1)	(51,5)	(48,18)	(46,78)	(50,56)	(0,37)	(39,23)	(5,23)	(354,14)	(6,16)	(56,6)	(54,14)	(-300,3)	(27,3)	(-5,5)	
L1D -49>	(50,10)	(-11,6)	(38,41)	(0,62)	(49,75)	(-56,2)	(64,11)	(6,32)	(-327,13)	(53,26)	(5,9)	(45,94)	(48,13)	(46,8)	(68,3)	(-86,1)	
L1D -48>	(-21,3)	(49,26)	(0,61)	(-328,24)	(52,26)	(47,15)	(48,74)	(11,7)	(45,1)	(-11,5)	(-210,8)	(44,99)	(37,14)	(6,10)	(-209,13)	(63,3)	
L1D -47>	(5,33)	(48,40)	(-206,5)	(-1,18)	(47,60)	(46,44)	(36,74)	(0,60)	(45,20)	(-87,22)	(43,67)	(44,28)	(6,16)	(51,14)	(115,1)	(-121,9)	
L1D -46>	(0,62)	(47,10)	(50,7)	(10,4)	(44,9)	(-377,14)	(42,68)	(45,30)	(6,8)	(101,1)	(90,3)	(46,74)	(-5,8)	(43,13)	(5,3)	(181,2)	
L1D -45>	(49,6)	(-110,1)	(43,5)	(46,23)	(41,79)	(6,10)	(0,38)	(45,46)	(-105,2)	(51,4)	(42,21)	(44,15)	(-5,4)	(1,3)	(-116,7)	(34,29)	
L1D -44>	(48,8)	(40,66)	(41,2)	(0,39)	(42,10)	(6,3)	(22,1)	(43,13)	(59,1)	(-332,14)	(111,1)	(44,34)	(45,22)	(33,9)	(-116,8)	(5,4)	
L1D -43>	(0,43)	(42,24)	(44,33)	(43,60)	(32,5)	(47,20)	(39,69)	(40,11)	(11,12)	(1,3)	(-106,3)	(38,1)	(113,2)	(16,6)	(-101,2)	(5,19)	
L1D -42>	(46,39)	(42,111)	(0,53)	(-384,8)	(1,29)	(39,8)	(41,47)	(-334,27)	(37,9)	(5,1)	(31,60)	(43,69)	(38,71)	(-90,18)	(40,10)	(-5,5)	
L1D -41>	(42,20)	(0,76)	(40,57)	(30,16)	(41,98)	(-111,3)	(39,20)	(6,1)	(5,26)	(45,32)	(38,23)	(17,6)	(96,3)	(56,5)	(37,86)	(-106,7)	
L1D -40>	(0,32)	(-11,1)	(36,22)	(6,31)	(-371,7)	(-405,9)	(29,50)	(38,7)	(39,28)	(40,89)	(11,11)	(41,26)	(44,30)	(-336,20)	(-383,4)	(5,20)	
L1D -39>	(43,23)	(35,35)	(28,5)	(0,58)	(5,10)	(37,22)	(40,22)	(-5,7)	(10,1)	(-1,16)	(39,87)	(38,44)	(-121,12)	(36,18)	(49,14)	(6,23)	
L1D -38>	(0,85)	(10,1)	(36,15)	(37,39)	(-116,4)	(38,82)	(5,22)	(42,20)	(-5,8)	(1,12)	(34,104)	(39,22)	(11,6)	(33,12)	(-338,9)	(40,3)	
L1D -37>	(-162,1)	(36,34)	(5,6)	(33,73)	(1,6)	(0,49)	(-121,5)	(-205,4)	(38,39)	(-379,6)	(37,75)	(26,25)	(-216,5)	(47,3)	(34,19)	(41,17)	
L1D -36>	(37,49)	(36,64)	(5,11)	(31,10)	(-340,1)	(39,4)	(38,42)	(-5,7)	(-121,6)	(0,40)	(35,32)	(29,4)	(34,16)	(-366,7)	(32,54)	(10,2)	
L1D -35>	(31,89)	(-367,10)	(39,8)	(35,43)	(0,39)	(41,8)	(-331,10)	(34,20)	(24,13)	(36,15)	(-116,10)	(6,18)	(-341,12)	(38,4)	(-106,1)	(110,2)	
L1D -34>	(40,5)	(31,12)	(35,17)	(33,20)	(30,66)	(23,51)	(34,81)	(5,30)	(0,28)	(38,16)	(6,27)	(-106,6)	(39,4)	(49,1)	(1,7)	(-342,5)	
L1D -33>	(0,63)	(28,7)	(34,27)	(37,19)	(-116,26)	(15,4)	(6,54)	(29,109)	(33,103)	(22,51)	(-110,21)	(32,52)	(-121,41)	(1,18)	(30,30)	(133,1)	
L1D -32>	(16,20)	(32,57)	(-121,9)	(31,34)	(38,8)	(0,68)	(1,19)	(-115,10)	(-8,40)	(21,28)	(28,113)	(6,18)	(51,8)	(36,24)	(269,1)	(11,26)	
L1D -31>	(0,70)	(-1,23)	(1,20)	(-362,1)	(31,71)	(37,5)	(10,10)	(5,11)	(-64,2)	(11,68)	(20,49)	(21,7)	(32,27)	(27,106)	(30,13)	(26,20)	
L1D -30>	(0,61)	(19,18)	(1,8)	(31,21)	(30,41)	(36,7)	(29,24)	(45,3)	(-346,2)	(-21,2)	(26,72)	(110,1)	(-44,2)	(34,6)	(-116,8)	(-9,1)	
L1D -29>	(-111,2)	(5,5)	(-69,2)	(1,16)	(-10,4)	(-11,3)	(0,59)	(30,18)	(29,70)	(25,69)	(-348,4)	(28,24)	(-3,22)	(-96,12)	(-1,6)	(33,14)	
L1D -28>	(17,24)	(26,10)	(43,1)	(0,32)	(29,20)	(24,70)	(28,32)	(27,15)	(-58,1)	(1,15)	(23,11)	(6,6)	(32,3)	(-116,2)	(-348,17)	(-97,10)	
L1D -27>	(31,28)	(5,6)	(-349,4)	(27,74)	(0,37)	(-325,3)	(6,11)	(11,5)	(22,13)	(24,29)	(23,57)	(-106,5)	(39,1)	(21,11)	(16,23)	(3,2)	
L1D -26>	(26,84)	(0,63)	(27,5)	(-121,7)	(22,127)	(-356,7)	(15,24)	(21,61)	(24,57)	(6,35)	(11,3)	(-127,1)	(-368,7)	(19,2)	(30,28)	(25,5)	
L1D -25>	(0,52)	(-85,4)	(21,96)	(99,2)	(24,31)	(20,8)	(-6,13)	(23,7)	(5,35)	(22,6)	(14,3)	(25,24)	(6,7)	(1,9)	(29,7)	(-349,1)	
L1D -24>	(21,46)	(0,7)	(27,6)	(5,4)	(227,1)	(22,21)	(24,93)	(25,11)	(-8,18)	(2,12)	(20,31)	(13,2)	(23,12)	(26,22)	(4,36)	(1,5)	
L1D -23>	(-7,12)	(0,69)	(53,1)	(24,47)	(23,87)	(38,25)	(19,121)	(1,49)	(-1,77)	(-10,79)	(26,7)	(21,42)	(6,11)	(-99,18)	(12,13)	(5,10)	
L1D -22>	(26,43)	(0,66)	(232,46)	(11,121)	(288,36)	(299,43)	(21,71)	(235,26)	(282,44)	(1,95)	(-11,69)	(264,25)	(234,24)	(280,1)	(22,87)	(242,36)	
L1D -21>	(-11,1)	(21,43)	(10,15)	(1,71)	(22,40)	(25,11)	(271,6)	(11,51)	(26,4)	(260,9)	(0,23)	(233,4)	(-3,8)	(20,7)	(275,6)	(293,9)	
L1D -20>	(-1,89)	(26,13)	(27,5)	(25,29)	(-4,52)	(24,65)	(0,57)	(1,56)	(21,62)	(20,94)	(11,84)	(-163,1)	(4,86)	(5,6)	(-5,34)	(6,8)	
L1D -19>	(1,66)	(18,9)	(-1,11)	(10,2)	(-4,3)	(-3,13)	(19,53)	(-21,2)	(-116,3)	(20,19)	(0,19)	(16,6)	(8,27)	(-106,9)	(-357,1)	(23,18)	
L1D -18>	(1,104)	(-3,4)	(14,1)	(0,5)	(37,1)	(-4,1)	(4,46)	(-1,4)	(19,1)	(-212,1)	(7,2)	(18,3)	(2,2)	(-348,2)	(-121,1)	(-200,1)	
L1D -17>	(1,18)	(-1,95)	(16,37)	(10,7)	(0,69)	(-4,63)	(21,4)	(17,27)	(15,23)	(-3,24)	(23,9)	(5,3)	(-115,1)	(12,2)	(18,8)	(6,19)	
L1D -16>	(0,80)	(6,8)	(-1,4)	(1,37)	(-48,5)	(-156,1)	(-8,29)	(-3,8)	(-4,4)	(-16,13)	(16,48)	(2,16)	(-5,2)	(15,7)	(14,4)	(5,10)	
L1D -15>	(1,88)	(0,61)	(25,1)	(17,1)	(6,2)	(135,1)	(5,3)	(16,11)	(15,4)	(-105,1)	(-1,3)	(14,1)	(-100,1)	(190,1)	(-116,1)	(165,1)	
L1D -14>	(16,10)	(1,66)	(0,6)	(14,69)	(-75,1)	(-61,0)	(-71,0)	(5,0)	(17,2)	(-44,1)	(15,1)	(13,2)	(-107,0)	(-39,1)	(-69,0)	(-335,0)	
L1D -13>	(13,71)	(12,7)	(17,1)	(10,2)	(1,25)	(16,15)	(15,17)	(-16,1)	(-48,0)	(4,122)	(-8,1)	(0,2)	(-3,8)	(27,10)	(2,2)	(22,0)	
L1D -12>	(26,9)	(1,7)	(12,78)	(14,14)	(11,18)	(-10,2)	(15,15)	(21,5)	(16,1)	(9,1)	(13,1)	(-8,6)	(179,1)	(201,1)	(-11,2)	(2,3)	
L1D -11>	(13,14)	(1,88)	(229,5)	(0,36)	(235,4)	(-9,6)	(-11,24)	(16,14)	(21,55)	(251,3)	(11,113)	(-10,39)	(-85,2)	(10,19)	(2,9)	(111,14)	
L1D -10>	(21,45)	(115,4)	(2,49)	(5,2)	(-6,18)	(-5,26)	(275,1)	(0,7)	(10,12)	(11,66)	(259,1)	(235,4)	(-10,39)	(4,53)	(1,28)	(110,7)	
L1D -9>	(1,103)	(8,3)	(0,8)	(-367,4)	(162,2)	(-106,2)	(9,9)	(-11,11)	(259,2)	(21,2)	(11,14)	(10,4)	(-7,8)	(293,1)	(15,6)	(-403,1)	
L1D -8>	(1,76)	(182,3)	(-11,68)	(-24,2)	(-8,83)	(375,72)	(8,37)	(-16,7)	(16,3)	(-7,2)	(164,5)	(-3,10)	(169,1)	(0,26)	(2,2)	(-368,3)	
L1D -7>	(0,124)	(1,61)	(-84,2)	(31,1)	(-1,20)	(-21,2)	(-8,1)	(-105,2)	(16,18)	(-96,1)	(-109,1)	(10,9)	(-110,3)	(-103,1)	(-73,4)	(-28,1)	
L1D -6>	(1,97)	(74,1)	(0,10)	(9,6)	(370,16)	(189,1)	(-129,1)	(368,2)	(6,2)	(-22,1)	(-1,68)	(2,6)	(111,8)	(-245,2)	(-110,6)	(106,2)	
L1D -5>	(1,64)	(5,8)	(55,1)	(7,7)	(-110,3)	(0,12)	(-1,16)	(-111,5)	(367,1)	(2,6)	(110,8)	(-8,29)	(-3,9)	(368,26)	(3,1)	(-5,7)	
L1D -4>	(23,1)	(1,120)	(20,2)	(4,1)	(26,3)	(15,1)	(21,2)	(-121,4)	(2,2)	(-11,2)	(-3,1)	(24,5)	(-167,1)	(131,1)	(367,3)	(25,3)	
L1D -3>	(20,6)	(-2,4)	(21,18)	(0,77)	(-7,3)	(1,95)	(3,10)	(386,1)	(-13,3)	(10,14)	(368,7)	(24,12)	(25,7)	(-5,65)	(-15,125)	(-4,5)	
L1D -2>	(-21,1)	(387,1)	(-8,0)	(0,22)	(-6,0)	(-24,2)	(-2,26)	(1,79)	(-15,40)	(2,7)	(-159,0)	(-5,1)	(390,0)	(-1,1)	(379,3)	(-4,2)	
L1D -1>	(0,123)	(-11,2)	(1,125)	(-6,20)	(-111,1)	(10,2)	(99,1)	(5,2)	(-5,15)	(-430,1)	(-61,1)	(2,7)	(-1,23)	(-7,5)	(-262,1)	(-9,1)	
L1D 0>	(11,2)	(107,1)	(2,8)	(-2,2)	(-105,1)	(-1,8)	(-12,1)	(15,9)	(1,34)	(-4,2)	(-3,3)	(3,4)	(0,102)	(10,5)	(-10,2)	(-7,4)	
L1D 1>	(400,1)	(369,1)	(-18,3)	(1,92)	(16,1)	(3,3)	(15,2)	(-286,1)	(275,1)	(377,1)	(8,1)	(0,10)	(2,4)	(-1,15)	(5,2)	(371,1)	
L1D 2>	(1,125)	(-24,5)	(0,23)	(377,11)	(366,2)	(2,14)	(-1,2)	(-8,2)	(-2,17)	(12,2)	(365,8)	(-9,2)	(-4,3)	(-7,3)	(-3,40)	(-6,18)	
L1D 3>	(-2,2)	(-9,27)	(-8,29)	(-3,23)	(0,59)	(-6,44)	(364,36)	(2,21)	(1,92)	(-7,26)	(-11,6)	(-1,3)	(-5,4)	(7,1)	(-13,119)	(-14,3)	
L1D 4>	(-6,15)	(11,3)	(-7,26)	(10,1)	(-100,1)	(1,70)	(0,2)	(-67,1)	(-113,1)	(-70,1)	(-38,0)	(-26,0)	(-44,0)	(-4,1)	(-61,1)	(-56,0)	
L1D 5>	(5,27)	(6,6)	(10,13)	(-105,5)	(-116,13)	(-283,1)	(363,16)	(106,3)	(1,8)	(-5,91)	(111,10)	(105,8)	(0,4)	(110,10)	(-6,13)	(116,12)	
L1D 6>	(-6,6)	(69,3)	(5,98)	(-7,22)	(-116,14)	(-111,8)	(-1,11)	(0,15)	(110,20)	(68,4)	(105,6)	(-11,5)	(-5,3)	(83,1)	(21,2)	(115,8)	
L1D 7>	(15,5)	(1,75)	(-7,105)	(-2,18)	(-38,1)	(-1,34)	(-54,2)	(299,1)	(8,11)	(-106,9)	(0,27)	(-117,6)	(297,4)	(-111,1)	(11,1)	(-57,6)	
L1D 8>	(1,127)	(136,1)	(4,0)	(0,4)	(-279,0)	(8,21)	(191,0)	(-16,24)	(-20,0)	(-9,3)	(-10,0)	(43,0)	(-8,3)	(-119,0)	(-22,0)	(32,0)	
L1D 9>	(11,27)	(-10,20)	(-24,1)	(-8,64)	(0,14)	(1,57)	(-9,14)	(6,6)	(-2,20)	(-21,15)	(273,4)	(-16,8)	(-1,89)	(-420,4)	(225,2)	(233,6)	
L1D 10>	(-1,64)	(-11,117)	(-21,32)	(10,4)	(11,8)	(1,23)	(-20,6)	(2,22)	(-10,18)	(396,1)	(256,4)	(229,2)	(230,4)	(-2,28)	(101,2)	(0,13)	
L1D 11>	(-410,1)	(10,124)	(-11,5)	(-10,42)	(-1,2)	(-393,3)	(-116,2)	(1,6)	(-21,9)	(-398,2)	(229,2)	(2,6)	(230,3)	(162,2)	(277,2)	(409,2)	
L1D 12>	(-12,29)	(-37,1)	(13,4)	(-11,65)	(-1,16)	(0,26)	(9,10)	(10,10)	(-17,4)	(15,2)	(1,2)	(-25,7)	(-21,6)	(14,5)	(2,10)	(3,6)	
L1D 13>	(-1,6)	(-12,89)	(-13,9)	(-3,14)	(0,9)	(-11,5)	(1,2)	(-35,1)	(-124,1)	(-49,1)	(-38,1)	(-336,2)	(2,10)	(-369,2)	(14,1)	(3,1)	
L1D 14>	(-21,1)	(-3,7)	(-14,50)	(-13,83)	(0,7)	(-119,2)	(-43,1)	(3,1)	(-1,2)	(-113,2)	(2,4)	(-106,1)	(-8,3)	(-360,1)	(-125,2)	(1,1)	
L1D 15>	(-180,1)	(-14,79)	(0,3)	(-8,1)	(-1,34)	(-141,1)	(-111,1)	(2,6)	(-82,1)	(-3,7)	(-35,1)	(-64,1)	(-59,2)	(-88,2)	(-90,2)	(-79,1)	
L1D 16>	(-126,5)	(-15,53)	(1,2)	(-106,2)	(-14,92)	(-121,8)	(-3,47)	(-8,21)	(8,2)	(-189,1)	(-1,10)	(-7,1)	(0,32)	(-16,3)	(-390,1)	(285,1)	
L1D 17>	(1,38)	(-3,31)	(5,20)	(0,107)	(-7,101)	(-406,1)	(55,4)	(-127,19)	(-336,7)	(-17,67)	(4,105)	(-1,111)	(-11,26)	(-8,32)	(-9,37)	(-16,7)	
L1D 18>	(-11,72)	(-23,31)	(-406,10)	(-18,120)	(-123,13)	(-7,52)	(0,95)	(-335,13)	(4,124)	(14,8)	(229,1)	(-334,36)	(1,93)	(5,9)	(-374,20)	(-13,26)	
L1D 19>	(0,75)	(-19,90)	(-18,6)	(-391,4)	(81,3)	(1,58)	(-14,29)	(-1,7)	(-129,6)	(4,56)	(-3,19)	(-11,26)	(30,2)	(-375,15)	(-24,20)	(-25,10)	
L1D 20>	(-11,8)	(11,7)	(-20,111)	(-17,20)	(274,1)	(258,3)	(-115,3)	(247,6)	(-10,10)	(-15,8)	(-21,10)	(1,31)	(0,33)	(4,19)	(10,3)	(-16,15)	
L1D 21>	(254,1)	(-21,93)	(-18,39)	(-17,43)	(1,52)	(-20,15)	(-16,7)	(4,14)	(242,5)	(250,4)	(0,14)	(-11,9)	(255,10)	(-10,5)	(11,4)	(-25,13)	
L1D 22>	(-22,104)	(-21,6)	(4,21)	(-403,7)	(-1,11)	(-7,12)	(-18,37)	(-88,2)	(-28,5)	(1,8)	(10,17)	(-11,16)	(0,26)	(-19,29)	(216,1)	(-401,1)	
L1D 23>	(-20,9)	(-110,1)	(-30,15)	(4,45)	(15,42)	(10,5)	(-7,39)	(-29,8)	(-11,11)	(0,111)	(-379,19)	(1,30)	(-23,119)	(2,8)	(8,7)	(-19,29)	
L1D 24>	(-24,126)	(1,13)	(-339,4)	(-20,30)	(-130,3)	(-59,6)	(-21,24)	(4,6)	(0,9)	(-359,3)	(-194,1)	(-7,1)	(-133,2)	(-337,5)	(-19,1)	(-8,2)	
L1D 25>	(0,6)	(-1,91)	(-4,7)	(-25,68)	(-40,3)	(-22,17)	(125,1)	(1,20)	(-381,3)	(-7,4)	(4,24)	(-5,3)	(2,9)	(-20,2)	(-21,22)	(-30,7)	
L1D 26>	(-2,40)	(-6,2)	(-3,2)	(-26,71)	(4,6)	(-32,4)	(1,21)	(-5,8)	(-4,5)	(0,31)	(-384,1)	(-7,10)	(-31,5)	(-23,6)	(-11,3)	(11,2)	
L1D 27>	(1,24)	(-11,4)	(-7,30)	(-27,66)	(-5,6)	(-364,5)	(4,43)	(-122,5)	(-6,8)	(0,39)	(-3,43)	(-25,8)	(-1,32)	(-176,1)	(-334,1)	(-399,2)	
L1D 28>	(-28,51)	(-27,2)	(-111,2)	(-29,12)	(-7,27)	(0,66)	(1,33)	(-23,9)	(-11,21)	(4,53)	(-33,1)	(-22,2)	(15,7)	(-62,1)	(-90,2)	(-384,10)	
L1D 29>	(-24,12)	(-29,15)	(1,45)	(-123,2)	(-1,31)	(-7,5)	(-34,4)	(-28,17)	(0,81)	(-410,5)	(4,12)	(-30,5)	(-385,1)	(3,14)	(2,23)	(15,16)	
L1D 30>	(-29,7)	(2,31)	(-30,23)	(1,54)	(15,3)	(0,69)	(4,15)	(-141,3)	(-102,1)	(-15,2)	(-25,13)	(-386,3)	(3,35)	(-7,14)	(-1,82)	(-36,7)	
L1D 31>	(0,119)	(-7,24)	(-26,11)	(4,97)	(1,41)	(6,6)	(15,20)	(-372,5)	(-11,40)	(-131,12)	(-30,11)	(-31,105)	(-1,35)	(-371,8)	(-391,4)	(283,1)	
L1D 32>	(-25,10)	(-363,7)	(1,32)	(-31,45)	(-16,7)	(0,114)	(-8,50)	(-1,23)	(-132,17)	(-37,22)	(-142,1)	(-38,12)	(-11,28)	(4,43)	(-32,120)	(-2,15)	
L1D 33>	(-1,71)	(0,117)	(-149,15)	(-11,33)	(1,46)	(-33,75)	(-153,1)	(-28,15)	(-21,12)	(4,68)	(-386,7)	(-401,5)	(-75,4)	(-144,24)	(-138,8)	(15,17)	
L1D 34>	(-11,41)	(4,46)	(-1,14)	(-40,18)	(-34,94)	(15,22)	(1,23)	(-98,3)	(-24,13)	(-29,39)	(-39,30)	(-7,15)	(0,101)	(5,6)	(30,1)	(-21,2)	
L1D 35>	(-24,8)	(-35,43)	(1,38)	(-140,17)	(-7,27)	(-1,13)	(0,86)	(-11,11)	(30,1)	(-3,17)	(-30,33)	(-145,6)	(-391,13)	(4,11)	(6,5)	(2,6)	
L1D 36>	(-79,1)	(1,32)	(-152,4)	(-63,2)	(-1,12)	(0,95)	(2,14)	(-26,9)	(3,9)	(-7,52)	(15,33)	(-35,9)	(4,9)	(-41,23)	(11,4)	(-100,3)	
L1D 37>	(-1,14)	(15,1)	(-26,13)	(-395,9)	(0,87)	(-4,3)	(-7,12)	(-11,14)	(-37,71)	(-36,12)	(-393,5)	(1,20)	(-142,11)	(-32,19)	(4,47)	(-136,2)	
L1D 38>	(-67,3)	(-149,1)	(15,13)	(30,2)	(0,99)	(-25,2)	(1,30)	(-2,41)	(-33,14)	(-28,3)	(-38,30)	(-105,6)	(-7,25)	(4,10)	(-27,2)	(-43,18)	
L1D 39>	(-39,115)	(4,59)	(-44,25)	(1,56)	(-1,47)	(-139,17)	(-408,6)	(0,124)	(-398,10)	(-34,36)	(-45,28)	(-387,1)	(-259,3)	(59,3)	(15,25)	(-149,24)	
L1D 40>	(-40,53)	(-1,7)	(-29,13)	(-396,8)	(-35,8)	(-131,1)	(1,26)	(4,38)	(-45,9)	(-34,2)	(-11,18)	(-39,4)	(-371,2)	(-7,10)	(2,4)	(0,67)	
L1D 41>	(0,58)	(1,16)	(272,1)	(-41,19)	(-151,5)	(-11,6)	(-1,16)	(4,77)	(-47,2)	(-36,10)	(-46,11)	(-152,6)	(5,5)	(-7,21)	(2,3)	(10,2)	
L1D 42>	(11,6)	(-42,74)	(-37,25)	(1,21)	(0,95)	(4,34)	(-21,8)	(-433,1)	(-16,6)	(-398,10)	(5,7)	(-11,20)	(-7,21)	(15,33)	(30,8)	(-47,8)	
L1D 43>	(-88,4)	(-1,8)	(0,104)	(1,64)	(-7,52)	(-38,35)	(-43,95)	(-49,22)	(-3,28)	(-359,13)	(-11,7)	(-405,5)	(4,18)	(7,1)	(15,14)	(21,5)	
L1D 44>	(-44,53)	(0,87)	(-39,43)	(4,70)	(-34,1)	(-38,7)	(2,25)	(-7,28)	(-24,3)	(-408,2)	(1,25)	(15,18)	(10,4)	(-11,14)	(-50,15)	(7,15)	
L1D 45>	(-76,5)	(-44,5)	(-1,1)	(-4,4)	(-426,4)	(-45,82)	(-40,30)	(-24,7)	(-21,8)	(-7,38)	(4,59)	(-84,4)	(1,43)	(-11,9)	(-68,5)	(0,108)	
[...]
L1D 476>	(-73,3)	(-188,18)	(-177,1)	(-83,2)	(-194,13)	(-178,15)	(-71,1)	(-174,1)	(-56,1)	(-72,1)	(-349,1)	(-476,1)	(-92,1)	(-211,1)	(-477,2)	(-455,2)	
L1D 477>	(-477,1)	(-72,1)	(-189,39)	(-188,5)	(-388,1)	(-183,1)	(-178,6)	(-219,2)	(-67,1)	(-194,1)	(-462,1)	(-92,1)	(-220,3)	(-487,4)	(-78,1)	(-476,1)	
L1D 478>	(-468,3)	(-135,1)	(-479,1)	(-62,1)	(1,0)	(1,0)	(1,0)	(1,0)	(1,0)	(1,0)	(1,0)	(1,0)	(1,0)	(1,0)	(1,0)	(1,0)	
L1D 479>	(-8,4)	(-179,6)	(-190,1)	(-32,1)	(-3,1)	(-161,1)	(-63,2)	(-2,1)	(-89,1)	(1,0)	(1,0)	(1,0)	(1,0)	(1,0)	(1,0)	(1,0)	
L1D 480>	(1,0)	(1,0)	(1,0)	(1,0)	(1,0)	(1,0)	(1,0)	(1,0)	(1,0)	(1,0)	(1,0)	(1,0)	(1,0)	(1,0)	(1,0)	(1,0)	
L1D 481>	(-220,1)	(1,0)	(1,0)	(1,0)	(1,0)	(1,0)	(1,0)	(1,0)	(1,0)	(1,0)	(1,0)	(1,0)	(1,0)	(1,0)	(1,0)	(1,0)	
L1D 482>	(-55,1)	(-481,1)	(-201,1)	(-196,1)	(-80,2)	(1,0)	(1,0)	(1,0)	(1,0)	(1,0)	(1,0)	(1,0)	(1,0)	(1,0)	(1,0)	(1,0)	
L1D 483>	(1,0)	(1,0)	(1,0)	(1,0)	(1,0)	(1,0)	(1,0)	(1,0)	(1,0)	(1,0)	(1,0)	(1,0)	(1,0)	(1,0)	(1,0)	(1,0)	
L1D 484>	(-495,2)	(-473,1)	(1,0)	(1,0)	(1,0)	(1,0)	(1,0)	(1,0)	(1,0)	(1,0)	(1,0)	(1,0)	(1,0)	(1,0)	(1,0)	(1,0)	
L1D 485>	(-202,1)	(1,0)	(1,0)	(1,0)	(1,0)	(1,0)	(1,0)	(1,0)	(1,0)	(1,0)	(1,0)	(1,0)	(1,0)	(1,0)	(1,0)	(1,0)	
L1D 486>	(-183,10)	(-71,2)	(-182,1)	(-202,1)	(1,0)	(1,0)	(1,0)	(1,0)	(1,0)	(1,0)	(1,0)	(1,0)	(1,0)	(1,0)	(1,0)	(1,0)	
L1D 487>	(-199,3)	(-183,16)	(0,3)	(-67,6)	(-51,1)	(-56,1)	(-204,1)	(-188,1)	(-194,1)	(-189,1)	(-72,1)	(1,0)	(1,0)	(1,0)	(1,0)	(1,0)	
L1D 488>	(-8,2)	(2,1)	(1,0)	(1,0)	(1,0)	(1,0)	(1,0)	(1,0)	(1,0)	(1,0)	(1,0)	(1,0)	(1,0)	(1,0)	(1,0)	(1,0)	
L1D 489>	(-8,4)	(1,0)	(1,0)	(1,0)	(1,0)	(1,0)	(1,0)	(1,0)	(1,0)	(1,0)	(1,0)	(1,0)	(1,0)	(1,0)	(1,0)	(1,0)	
L1D 490>	(-8,1)	(-3,5)	(1,0)	(1,0)	(1,0)	(1,0)	(1,0)	(1,0)	(1,0)	(1,0)	(1,0)	(1,0)	(1,0)	(1,0)	(1,0)	(1,0)	
L1D 491>	(-490,1)	(0,1)	(-8,1)	(1,0)	(1,0)	(1,0)	(1,0)	(1,0)	(1,0)	(1,0)	(1,0)	(1,0)	(1,0)	(1,0)	(1,0)	(1,0)	
L1D 492>	(-205,1)	(-481,1)	(1,0)	(1,0)	(1,0)	(1,0)	(1,0)	(1,0)	(1,0)	(1,0)	(1,0)	(1,0)	(1,0)	(1,0)	(1,0)	(1,0)	
L1D 493>	(-206,1)	(1,0)	(1,0)	(1,0)	(1,0)	(1,0)	(1,0)	(1,0)	(1,0)	(1,0)	(1,0)	(1,0)	(1,0)	(1,0)	(1,0)	(1,0)	
L1D 494>	(-483,1)	(0,1)	(1,0)	(1,0)	(1,0)	(1,0)	(1,0)	(1,0)	(1,0)	(1,0)	(1,0)	(1,0)	(1,0)	(1,0)	(1,0)	(1,0)	
L1D 495>	(-484,1)	(-495,1)	(1,0)	(1,0)	(1,0)	(1,0)	(1,0)	(1,0)	(1,0)	(1,0)	(1,0)	(1,0)	(1,0)	(1,0)	(1,0)	(1,0)	
L1D 496>	(1,0)	(1,0)	(1,0)	(1,0)	(1,0)	(1,0)	(1,0)	(1,0)	(1,0)	(1,0)	(1,0)	(1,0)	(1,0)	(1,0)	(1,0)	(1,0)	
L1D 497>	(1,0)	(1,0)	(1,0)	(1,0)	(1,0)	(1,0)	(1,0)	(1,0)	(1,0)	(1,0)	(1,0)	(1,0)	(1,0)	(1,0)	(1,0)	(1,0)	
L1D 498>	(-509,1)	(1,0)	(1,0)	(1,0)	(1,0)	(1,0)	(1,0)	(1,0)	(1,0)	(1,0)	(1,0)	(1,0)	(1,0)	(1,0)	(1,0)	(1,0)	
L1D 499>	(1,0)	(1,0)	(1,0)	(1,0)	(1,0)	(1,0)	(1,0)	(1,0)	(1,0)	(1,0)	(1,0)	(1,0)	(1,0)	(1,0)	(1,0)	(1,0)	
L1D 500>	(-500,1)	(-216,1)	(1,0)	(1,0)	(1,0)	(1,0)	(1,0)	(1,0)	(1,0)	(1,0)	(1,0)	(1,0)	(1,0)	(1,0)	(1,0)	(1,0)	
L1D 501>	(-331,1)	(-315,1)	(-221,1)	(1,0)	(1,0)	(1,0)	(1,0)	(1,0)	(1,0)	(1,0)	(1,0)	(1,0)	(1,0)	(1,0)	(1,0)	(1,0)	
L1D 502>	(-491,1)	(-222,1)	(1,0)	(1,0)	(1,0)	(1,0)	(1,0)	(1,0)	(1,0)	(1,0)	(1,0)	(1,0)	(1,0)	(1,0)	(1,0)	(1,0)	
L1D 503>	(-332,1)	(-492,3)	(1,0)	(1,0)	(1,0)	(1,0)	(1,0)	(1,0)	(1,0)	(1,0)	(1,0)	(1,0)	(1,0)	(1,0)	(1,0)	(1,0)	
L1D 504>	(-5,3)	(-7,3)	(-8,1)	(-493,1)	(1,0)	(1,0)	(1,0)	(1,0)	(1,0)	(1,0)	(1,0)	(1,0)	(1,0)	(1,0)	(1,0)	(1,0)	
L1D 505>	(0,1)	(1,0)	(1,0)	(1,0)	(1,0)	(1,0)	(1,0)	(1,0)	(1,0)	(1,0)	(1,0)	(1,0)	(1,0)	(1,0)	(1,0)	(1,0)	
L1D 506>	(1,0)	(1,0)	(1,0)	(1,0)	(1,0)	(1,0)	(1,0)	(1,0)	(1,0)	(1,0)	(1,0)	(1,0)	(1,0)	(1,0)	(1,0)	(1,0)	
L1D 507>	(1,0)	(1,0)	(1,0)	(1,0)	(1,0)	(1,0)	(1,0)	(1,0)	(1,0)	(1,0)	(1,0)	(1,0)	(1,0)	(1,0)	(1,0)	(1,0)	
L1D 508>	(-497,1)	(1,0)	(1,0)	(1,0)	(1,0)	(1,0)	(1,0)	(1,0)	(1,0)	(1,0)	(1,0)	(1,0)	(1,0)	(1,0)	(1,0)	(1,0)	
L1D 509>	(-508,1)	(1,0)	(1,0)	(1,0)	(1,0)	(1,0)	(1,0)	(1,0)	(1,0)	(1,0)	(1,0)	(1,0)	(1,0)	(1,0)	(1,0)	(1,0)	
L1D 510>	(-5,1)	(1,0)	(1,0)	(1,0)	(1,0)	(1,0)	(1,0)	(1,0)	(1,0)	(1,0)	(1,0)	(1,0)	(1,0)	(1,0)	(1,0)	(1,0)	
L1D 511>	(-7,1)	(1,0)	(1,0)	(1,0)	(1,0)	(1,0)	(1,0)	(1,0)	(1,0)	(1,0)	(1,0)	(1,0)	(1,0)	(1,0)	(1,0)	(1,0)	

L2C -64>	(1,179)	(-2,14)	(-1,48)	(-5,24)	(2,7)	(7,5)	(6,8)	(9,6)	(10,10)	(-6,13)	(13,4)	(0,8)	(4,8)	(3,11)	(15,1)	(-7,15)	
L2C -63>	(1,15)	(44,1)	(37,1)	(55,1)	(2,1)	(1,0)	(1,0)	(1,0)	(1,0)	(1,0)	(1,0)	(1,0)	(1,0)	(1,0)	(1,0)	(1,0)	
L2C -62>	(1,1)	(3,1)	(-1,1)	(1,0)	(1,0)	(1,0)	(1,0)	(1,0)	(1,0)	(1,0)	(1,0)	(1,0)	(1,0)	(1,0)	(1,0)	(1,0)	
L2C -61>	(1,1)	(36,2)	(62,1)	(45,1)	(1,0)	(1,0)	(1,0)	(1,0)	(1,0)	(1,0)	(1,0)	(1,0)	(1,0)	(1,0)	(1,0)	(1,0)	
L2C -60>	(49,1)	(61,1)	(28,1)	(8,1)	(1,0)	(1,0)	(1,0)	(1,0)	(1,0)	(1,0)	(1,0)	(1,0)	(1,0)	(1,0)	(1,0)	(1,0)	
L2C -59>	(2,1)	(-1,1)	(20,1)	(50,1)	(1,0)	(1,0)	(1,0)	(1,0)	(1,0)	(1,0)	(1,0)	(1,0)	(1,0)	(1,0)	(1,0)	(1,0)	
L2C -58>	(17,1)	(1,1)	(28,2)	(4,2)	(35,1)	(32,1)	(36,1)	(1,0)	(1,0)	(1,0)	(1,0)	(1,0)	(1,0)	(1,0)	(1,0)	(1,0)	
L2C -57>	(1,2)	(53,1)	(40,1)	(1,0)	(1,0)	(1,0)	(1,0)	(1,0)	(1,0)	(1,0)	(1,0)	(1,0)	(1,0)	(1,0)	(1,0)	(1,0)	
L2C -56>	(16,1)	(1,20)	(59,1)	(-1,1)	(61,1)	(1,0)	(1,0)	(1,0)	(1,0)	(1,0)	(1,0)	(1,0)	(1,0)	(1,0)	(1,0)	(1,0)	
L2C -55>	(1,14)	(-2,1)	(20,1)	(44,1)	(-1,1)	(2,1)	(16,1)	(17,1)	(1,0)	(1,0)	(1,0)	(1,0)	(1,0)	(1,0)	(1,0)	(1,0)	
L2C -54>	(20,1)	(11,1)	(1,9)	(41,1)	(-1,1)	(1,0)	(1,0)	(1,0)	(1,0)	(1,0)	(1,0)	(1,0)	(1,0)	(1,0)	(1,0)	(1,0)	
L2C -53>	(48,1)	(47,1)	(1,9)	(26,1)	(2,2)	(13,1)	(1,0)	(1,0)	(1,0)	(1,0)	(1,0)	(1,0)	(1,0)	(1,0)	(1,0)	(1,0)	
L2C -52>	(55,1)	(1,9)	(36,1)	(56,1)	(34,1)	(-1,1)	(51,1)	(39,1)	(1,0)	(1,0)	(1,0)	(1,0)	(1,0)	(1,0)	(1,0)	(1,0)	
L2C -51>	(6,1)	(36,1)	(1,17)	(52,1)	(42,1)	(22,1)	(9,1)	(30,1)	(3,2)	(48,1)	(2,1)	(13,1)	(-1,1)	(17,1)	(1,0)	(1,0)	
L2C -50>	(31,1)	(2,3)	(1,14)	(52,1)	(49,1)	(54,1)	(-1,2)	(5,1)	(37,2)	(51,1)	(-3,1)	(20,1)	(-7,1)	(48,1)	(1,0)	(1,0)	
L2C -49>	(1,11)	(47,2)	(20,1)	(2,1)	(-2,1)	(24,2)	(-4,1)	(10,1)	(30,1)	(31,1)	(18,1)	(40,1)	(34,2)	(11,1)	(56,1)	(29,1)	
L2C -48>	(13,1)	(1,7)	(49,1)	(-1,3)	(24,1)	(9,1)	(2,1)	(48,1)	(60,1)	(11,1)	(35,1)	(-3,1)	(47,1)	(1,0)	(1,0)	(1,0)	
L2C -47>	(8,1)	(2,2)	(-1,1)	(9,1)	(1,4)	(20,1)	(35,1)	(23,1)	(32,1)	(1,0)	(1,0)	(1,0)	(1,0)	(1,0)	(1,0)	(1,0)	
L2C -46>	(2,2)	(-4,1)	(5,2)	(45,1)	(-5,3)	(1,15)	(47,1)	(46,2)	(33,1)	(-2,1)	(28,2)	(32,1)	(19,1)	(36,1)	(-7,1)	(-6,1)	
L2C -45>	(-1,3)	(48,1)	(27,1)	(4,1)	(1,5)	(2,8)	(20,1)	(-4,2)	(5,1)	(23,1)	(26,3)	(16,1)	(6,1)	(-5,1)	(13,1)	(45,1)	
L2C -44>	(-3,3)	(1,8)	(14,1)	(40,1)	(28,1)	(3,1)	(13,1)	(24,1)	(-7,1)	(-1,5)	(31,1)	(-6,1)	(-4,1)	(22,1)	(26,1)	(-2,1)	
L2C -43>	(44,2)	(16,1)	(1,3)	(14,1)	(43,1)	(-8,2)	(-4,1)	(9,1)	(1,0)	(1,0)	(1,0)	(1,0)	(1,0)	(1,0)	(1,0)	(1,0)	
L2C -42>	(1,2)	(15,1)	(5,1)	(17,2)	(-12,1)	(-8,1)	(2,2)	(31,1)	(47,1)	(32,1)	(43,1)	(8,1)	(41,1)	(-13,1)	(1,0)	(1,0)	
L2C -41>	(37,1)	(28,1)	(1,5)	(-1,3)	(-15,1)	(25,2)	(4,2)	(-5,1)	(27,1)	(17,1)	(-2,2)	(53,1)	(33,2)	(30,1)	(11,1)	(47,2)	
L2C -40>	(-2,1)	(11,1)	(6,2)	(1,5)	(19,1)	(15,1)	(33,1)	(41,1)	(23,1)	(34,1)	(16,1)	(32,1)	(2,2)	(4,1)	(-4,1)	(3,1)	
L2C -39>	(1,14)	(-2,4)	(-8,1)	(3,1)	(21,2)	(-16,1)	(2,1)	(16,2)	(5,2)	(39,1)	(32,1)	(-1,1)	(0,2)	(-9,2)	(11,1)	(37,1)	
L2C -38>	(16,3)	(20,2)	(1,17)	(2,4)	(17,2)	(47,1)	(8,3)	(-20,1)	(-3,1)	(5,1)	(33,3)	(40,1)	(51,1)	(-1,2)	(35,1)	(4,3)	
L2C -37>	(16,1)	(36,15)	(-1,3)	(44,1)	(54,1)	(15,1)	(53,1)	(1,9)	(29,2)	(2,1)	(31,1)	(33,2)	(28,1)	(12,2)	(18,2)	(32,5)	
L2C -36>	(20,2)	(1,10)	(-1,10)	(3,3)	(37,4)	(32,1)	(59,1)	(-4,2)	(15,1)	(-5,1)	(19,1)	(5,2)	(-15,1)	(2,5)	(24,2)	(25,1)	
L2C -35>	(16,2)	(-5,2)	(2,2)	(34,1)	(1,11)	(3,2)	(22,1)	(30,2)	(31,1)	(36,1)	(29,1)	(32,1)	(-2,2)	(21,3)	(6,2)	(-4,4)	
L2C -34>	(1,19)	(34,3)	(30,1)	(10,2)	(18,3)	(-1,3)	(24,1)	(16,5)	(0,2)	(-2,1)	(19,2)	(35,2)	(13,1)	(2,4)	(15,2)	(4,3)	
L2C -33>	(1,9)	(2,4)	(-8,1)	(34,10)	(-1,5)	(41,1)	(3,16)	(17,4)	(33,4)	(12,1)	(4,3)	(-17,1)	(22,2)	(18,1)	(25,1)	(-20,1)	
L2C -32>	(3,2)	(0,3)	(1,13)	(6,4)	(28,4)	(16,5)	(34,3)	(32,2)	(59,1)	(19,1)	(33,4)	(42,1)	(2,13)	(8,1)	(5,1)	(26,1)	
L2C -31>	(1,14)	(45,1)	(25,2)	(2,5)	(27,2)	(17,6)	(0,1)	(14,2)	(-1,2)	(42,1)	(16,1)	(36,1)	(31,3)	(-4,2)	(-2,1)	(-20,1)	
L2C -30>	(-4,4)	(30,1)	(2,2)	(40,1)	(-5,3)	(-3,3)	(33,3)	(31,3)	(43,1)	(16,6)	(6,12)	(-1,5)	(1,15)	(0,2)	(25,1)	(38,1)	
L2C -29>	(47,1)	(28,2)	(1,7)	(30,3)	(-3,5)	(20,2)	(-17,1)	(14,2)	(-13,1)	(-2,2)	(-11,1)	(6,1)	(18,2)	(2,4)	(17,1)	(-6,2)	
L2C -28>	(2,16)	(-9,1)	(-6,1)	(1,21)	(14,1)	(-1,23)	(29,1)	(27,4)	(6,1)	(-11,2)	(37,1)	(45,1)	(13,1)	(-24,1)	(-22,1)	(-3,1)	
L2C -27>	(1,17)	(-1,3)	(26,5)	(28,1)	(-5,2)	(45,1)	(41,2)	(13,2)	(17,1)	(34,2)	(-23,2)	(2,3)	(-3,2)	(22,1)	(14,1)	(-4,2)	
L2C -26>	(1,19)	(14,2)	(42,2)	(8,1)	(4,1)	(-4,2)	(27,2)	(2,13)	(-1,1)	(3,2)	(-9,1)	(-28,1)	(37,1)	(17,1)	(34,1)	(-16,1)	
L2C -25>	(-20,1)	(21,3)	(19,1)	(16,1)	(27,2)	(59,1)	(5,1)	(-1,3)	(-2,3)	(35,2)	(34,2)	(1,10)	(-12,1)	(-11,1)	(31,1)	(17,2)	
L2C -24>	(1,13)	(-1,4)	(6,15)	(29,16)	(28,4)	(25,2)	(27,2)	(17,2)	(-9,1)	(32,3)	(20,8)	(-4,1)	(-24,1)	(43,4)	(36,4)	(16,2)	
L2C -23>	(1,27)	(36,1)	(-6,2)	(20,2)	(-19,2)	(3,3)	(17,1)	(-11,1)	(24,2)	(-5,2)	(31,1)	(53,1)	(-31,1)	(-7,1)	(-1,2)	(48,1)	
L2C -22>	(1,41)	(-12,3)	(-1,2)	(28,2)	(15,3)	(2,3)	(0,1)	(17,4)	(-9,2)	(37,1)	(-16,3)	(-2,2)	(-6,6)	(33,2)	(18,2)	(44,1)	
L2C -21>	(31,3)	(1,39)	(-1,7)	(17,2)	(-6,5)	(-2,2)	(-16,1)	(9,1)	(2,13)	(3,2)	(22,3)	(20,1)	(16,2)	(4,1)	(45,1)	(-33,1)	
L2C -20>	(2,22)	(1,36)	(21,3)	(10,2)	(23,1)	(-1,5)	(-2,19)	(27,1)	(11,2)	(36,2)	(-7,1)	(33,1)	(-21,1)	(19,4)	(13,1)	(31,2)	
L2C -19>	(1,22)	(-1,8)	(15,2)	(24,1)	(-25,2)	(0,6)	(-17,2)	(2,8)	(20,1)	(18,3)	(-14,3)	(44,1)	(6,2)	(14,4)	(54,2)	(5,1)	
L2C -18>	(37,2)	(3,2)	(1,22)	(2,8)	(-16,1)	(10,28)	(-12,1)	(-3,7)	(-9,1)	(-4,1)	(-5,3)	(12,1)	(25,4)	(-17,2)	(33,2)	(-1,15)	
L2C -17>	(-1,12)	(2,2)	(1,29)	(-4,3)	(51,2)	(18,4)	(7,2)	(-5,5)	(13,2)	(15,1)	(17,3)	(0,8)	(12,5)	(16,6)	(37,2)	(-34,1)	
L2C -16>	(-1,35)	(-17,5)	(26,3)	(1,34)	(0,4)	(-4,1)	(16,11)	(11,4)	(23,3)	(13,3)	(-13,2)	(14,3)	(3,3)	(12,5)	(15,17)	(-2,17)	
L2C -15>	(1,31)	(-22,2)	(-33,2)	(10,3)	(14,7)	(17,7)	(21,3)	(-17,3)	(-16,5)	(0,7)	(-1,36)	(18,3)	(36,1)	(20,3)	(5,3)	(12,6)	
L2C -14>	(1,44)	(-33,1)	(-6,3)	(22,2)	(2,4)	(-1,23)	(26,2)	(-5,4)	(23,2)	(30,1)	(5,5)	(-2,14)	(18,4)	(-32,1)	(12,8)	(10,1)	
L2C -13>	(-17,4)	(1,38)	(6,7)	(12,3)	(-4,6)	(29,4)	(-1,16)	(2,6)	(-16,4)	(3,4)	(-23,4)	(-3,3)	(51,1)	(-33,5)	(24,1)	(0,2)	
L2C -12>	(1,23)	(-1,33)	(4,5)	(3,2)	(13,4)	(-10,3)	(15,9)	(5,15)	(11,5)	(-6,2)	(0,3)	(16,5)	(-14,1)	(30,2)	(-2,4)	(-30,1)	
L2C -11>	(2,12)	(-5,2)	(-22,1)	(10,8)	(-1,39)	(16,1)	(-15,3)	(-2,4)	(5,14)	(-18,2)	(-16,4)	(32,2)	(1,9)	(22,9)	(-7,3)	(-25,1)	
L2C -10>	(2,11)	(8,2)	(9,18)	(11,18)	(-1,46)	(19,3)	(34,1)	(1,43)	(7,2)	(12,10)	(5,24)	(23,1)	(-2,6)	(4,12)	(-3,21)	(3,2)	
L2C -9>	(4,5)	(1,46)	(-37,1)	(24,2)	(-1,63)	(-2,11)	(-41,1)	(28,3)	(16,2)	(-25,1)	(2,7)	(-3,3)	(-28,2)	(10,8)	(36,1)	(5,3)	
L2C -8>	(3,17)	(1,52)	(10,9)	(5,3)	(-4,5)	(2,22)	(-26,2)	(8,1)	(15,5)	(7,7)	(9,9)	(-1,61)	(-9,4)	(33,2)	(-7,4)	(-2,15)	
L2C -7>	(1,62)	(16,1)	(-2,15)	(7,15)	(8,26)	(-1,175)	(-14,4)	(-5,6)	(6,41)	(-3,14)	(10,4)	(2,35)	(4,8)	(15,2)	(9,3)	(23,2)	
L2C -6>	(1,60)	(7,13)	(-3,5)	(-15,1)	(9,2)	(-24,18)	(-1,183)	(-2,18)	(2,20)	(3,11)	(25,13)	(40,2)	(17,2)	(26,29)	(-20,2)	(0,14)	
L2C -5>	(1,181)	(14,5)	(-15,5)	(6,15)	(-3,5)	(-1,100)	(0,28)	(-14,4)	(5,5)	(4,12)	(2,12)	(-2,6)	(-4,1)	(24,2)	(3,4)	(8,6)	
L2C -4>	(6,11)	(-15,1)	(3,26)	(-2,13)	(-4,26)	(-1,153)	(40,19)	(5,28)	(1,114)	(28,2)	(-5,9)	(-49,3)	(25,4)	(-20,5)	(2,15)	(-3,25)	
L2C -3>	(-4,6)	(9,12)	(1,42)	(5,37)	(4,12)	(-1,172)	(-6,12)	(6,4)	(2,22)	(-2,32)	(-3,10)	(-5,5)	(42,1)	(36,2)	(18,3)	(-10,1)	
L2C -2>	(-1,233)	(-3,25)	(4,4)	(39,1)	(32,2)	(1,64)	(6,7)	(-2,49)	(-20,6)	(-6,14)	(23,3)	(-4,7)	(3,15)	(5,7)	(24,1)	(34,9)	
L2C -1>	(-23,1)	(2,8)	(4,1)	(12,1)	(1,2)	(10,3)	(8,1)	(51,1)	(-7,1)	(-4,1)	(-18,1)	(-1,190)	(-2,9)	(-3,3)	(-11,1)	(0,2)	
L2C 0>	(5,13)	(2,17)	(4,8)	(1,85)	(-2,4)	(20,4)	(18,2)	(0,208)	(13,3)	(7,4)	(32,3)	(-9,1)	(6,1)	(-5,5)	(-1,20)	(-46,1)	
L2C 1>	(1,215)	(-10,1)	(-15,2)	(2,7)	(-40,1)	(10,3)	(-7,4)	(17,2)	(-6,5)	(-22,2)	(-1,5)	(-3,2)	(-2,3)	(3,4)	(-14,1)	(-5,6)	
L2C 2>	(1,137)	(3,6)	(-2,3)	(-6,5)	(-34,1)	(-5,1)	(-1,31)	(-8,2)	(-4,1)	(31,2)	(-41,1)	(-3,2)	(5,1)	(-7,1)	(2,12)	(-14,1)	
L2C 3>	(1,177)	(-4,60)	(-3,7)	(-9,8)	(2,22)	(-5,18)	(12,4)	(-2,29)	(-7,4)	(9,2)	(-1,81)	(-35,1)	(31,3)	(-18,32)	(4,5)	(7,3)	
L2C 4>	(-1,95)	(1,113)	(-5,6)	(-19,4)	(-20,4)	(3,13)	(11,5)	(-7,7)	(2,19)	(-4,18)	(-17,6)	(-3,30)	(-8,12)	(-2,13)	(-15,1)	(16,3)	
L2C 5>	(1,103)	(3,8)	(-13,3)	(-4,30)	(-7,25)	(-11,6)	(6,3)	(-1,77)	(4,4)	(-6,7)	(-14,3)	(16,2)	(-2,21)	(-3,23)	(-18,2)	(-12,1)	
L2C 6>	(1,52)	(4,10)	(-3,4)	(-1,74)	(2,12)	(-7,4)	(-11,3)	(-5,7)	(-4,6)	(-2,62)	(-10,18)	(45,1)	(24,1)	(-6,5)	(6,8)	(-16,2)	
L2C 7>	(1,82)	(-15,2)	(9,2)	(-2,11)	(-1,24)	(2,34)	(3,16)	(-5,5)	(-12,2)	(-16,3)	(-6,6)	(-7,16)	(5,18)	(-17,3)	(-36,1)	(11,1)	
L2C 8>	(-21,1)	(-4,6)	(-10,2)	(1,61)	(-1,68)	(6,4)	(-6,5)	(-3,24)	(-12,3)	(-32,3)	(-2,9)	(4,1)	(2,2)	(-7,23)	(-11,14)	(24,1)	
L2C 9>	(-44,3)	(-8,25)	(14,1)	(-1,73)	(-10,5)	(1,40)	(7,1)	(4,4)	(6,3)	(-2,21)	(-22,1)	(-36,1)	(2,14)	(-28,1)	(-4,5)	(-3,4)	
L2C 10>	(-26,1)	(32,1)	(4,6)	(1,63)	(3,5)	(-12,3)	(-1,90)	(-29,2)	(-2,19)	(14,1)	(-4,2)	(-32,2)	(2,20)	(-3,34)	(11,2)	(-5,3)	
L2C 11>	(16,7)	(3,4)	(-8,7)	(-1,31)	(1,46)	(-3,3)	(-5,5)	(15,2)	(-26,1)	(-17,2)	(39,1)	(13,1)	(-35,2)	(-37,2)	(-7,6)	(2,18)	
L2C 12>	(16,4)	(1,33)	(-1,41)	(2,5)	(19,1)	(5,2)	(9,1)	(-7,2)	(-10,17)	(8,2)	(-16,4)	(-2,11)	(20,3)	(-47,1)	(-34,1)	(-14,1)	
L2C 13>	(1,30)	(-13,5)	(13,12)	(-1,30)	(-15,3)	(-4,2)	(2,5)	(-33,2)	(-5,1)	(-2,10)	(4,3)	(-9,5)	(-14,6)	(-30,3)	(8,1)	(18,2)	
L2C 14>	(-2,14)	(-7,3)	(-36,1)	(1,19)	(-1,11)	(-6,4)	(-3,7)	(-13,10)	(-16,15)	(-15,13)	(-38,2)	(-10,2)	(2,8)	(-45,12)	(-14,3)	(-41,2)	
L2C 15>	(1,18)	(-3,8)	(-15,6)	(17,2)	(-14,13)	(2,4)	(-40,2)	(-2,3)	(-28,2)	(-6,2)	(-1,14)	(3,2)	(-20,1)	(-35,2)	(-17,4)	(-4,2)	
L2C 16>	(17,2)	(1,32)	(-17,2)	(-37,2)	(-13,2)	(-20,2)	(-1,26)	(-15,7)	(-2,14)	(2,5)	(-16,1)	(-6,2)	(-22,2)	(-23,3)	(-14,5)	(-30,1)	
L2C 17>	(-1,24)	(-22,1)	(-35,1)	(-7,2)	(-12,12)	(-51,3)	(-10,1)	(29,1)	(13,1)	(-16,19)	(-15,5)	(2,5)	(1,14)	(-6,1)	(25,1)	(30,1)	
L2C 18>	(-17,4)	(-1,18)	(-2,30)	(-3,1)	(-29,1)	(10,2)	(2,15)	(18,2)	(19,3)	(1,25)	(35,1)	(-16,6)	(-4,3)	(-18,6)	(0,2)	(-15,2)	
L2C 19>	(-18,2)	(-26,3)	(-55,2)	(-1,4)	(2,4)	(-9,2)	(-34,2)	(1,16)	(6,1)	(-2,2)	(-37,8)	(-46,1)	(-3,3)	(-7,3)	(-17,2)	(-5,2)	
L2C 20>	(-2,1)	(1,14)	(-1,18)	(2,4)	(34,2)	(-21,4)	(-50,2)	(-39,1)	(13,2)	(27,11)	(-4,1)	(-38,1)	(-13,1)	(-19,3)	(15,1)	(16,1)	
L2C 21>	(-12,1)	(-10,3)	(1,6)	(-27,2)	(-36,1)	(2,3)	(-38,2)	(-1,18)	(-9,10)	(3,4)	(10,2)	(-20,2)	(-19,2)	(7,1)	(26,5)	(13,3)	
L2C 22>	(-10,4)	(-40,1)	(1,16)	(-14,3)	(-19,1)	(-16,1)	(-34,2)	(-8,3)	(-32,1)	(-3,1)	(-12,6)	(23,1)	(-20,2)	(-6,1)	(-17,1)	(-35,2)	
L2C 23>	(-16,4)	(-39,2)	(-1,15)	(-23,2)	(-38,1)	(-25,1)	(-29,1)	(-15,3)	(4,2)	(3,12)	(-10,8)	(22,1)	(-28,2)	(19,2)	(-31,3)	(1,19)	
L2C 24>	(1,8)	(-30,2)	(-1,7)	(-3,2)	(-25,1)	(-7,1)	(3,4)	(-28,13)	(-24,4)	(8,3)	(2,2)	(7,1)	(-33,3)	(-16,2)	(-35,1)	(-15,3)	
L2C 25>	(-14,5)	(-17,9)	(-2,3)	(-3,3)	(-1,1)	(-26,2)	(-15,1)	(-49,1)	(7,1)	(5,3)	(8,2)	(-58,1)	(-7,1)	(-13,1)	(-41,1)	(-16,2)	
L2C 26>	(1,11)	(-15,1)	(-25,2)	(-16,2)	(-24,29)	(-5,2)	(7,2)	(-1,24)	(-3,2)	(-29,1)	(27,1)	(-12,3)	(-33,2)	(-14,5)	(-17,2)	(-38,1)	
L2C 27>	(-30,7)	(-21,1)	(2,2)	(-28,2)	(-29,3)	(-24,1)	(-34,1)	(-37,1)	(1,7)	(-2,5)	(-38,1)	(-12,11)	(-26,3)	(7,1)	(-10,2)	(-5,1)	
L2C 28>	(23,1)	(5,2)	(1,9)	(-8,1)	(-1,9)	(-30,1)	(-21,2)	(19,1)	(-16,4)	(-12,2)	(4,2)	(-28,2)	(-27,4)	(-29,2)	(-10,2)	(3,3)	
L2C 29>	(13,2)	(18,1)	(-2,9)	(-32,2)	(5,1)	(-33,4)	(1,22)	(14,15)	(4,2)	(-28,6)	(-22,4)	(-34,5)	(-12,3)	(-8,1)	(9,2)	(-1,13)	
L2C 30>	(-30,5)	(14,5)	(-31,5)	(1,13)	(-51,1)	(-5,2)	(-23,1)	(4,2)	(3,1)	(6,1)	(-32,3)	(-1,5)	(-18,1)	(-43,1)	(-34,5)	(-2,1)	
L2C 31>	(1,15)	(14,7)	(-18,1)	(-30,4)	(-6,5)	(-4,6)	(-9,1)	(-31,6)	(-36,2)	(2,3)	(-32,10)	(5,1)	(-50,1)	(0,3)	(-38,9)	(-3,2)	
L2C 32>	(-2,7)	(-15,4)	(-40,4)	(-30,7)	(-1,7)	(-32,2)	(2,3)	(-16,1)	(1,10)	(-28,1)	(0,3)	(-14,2)	(-33,2)	(-31,2)	(-11,2)	(14,5)	
L2C 33>	(1,12)	(-34,3)	(-15,1)	(-1,28)	(8,1)	(-20,4)	(-12,3)	(-38,1)	(-14,1)	(-11,2)	(-51,1)	(-24,1)	(-26,1)	(2,2)	(-39,1)	(-30,2)	
L2C 34>	(1,8)	(-18,4)	(-1,26)	(-34,2)	(14,3)	(4,3)	(2,8)	(-33,3)	(-35,1)	(-17,3)	(-2,4)	(-4,2)	(-50,1)	(-12,1)	(-32,2)	(3,2)	
L2C 35>	(-33,3)	(1,8)	(-19,4)	(-1,1)	(-2,2)	(18,4)	(-45,1)	(-18,1)	(-34,5)	(5,1)	(14,4)	(-14,1)	(-15,1)	(-25,1)	(-24,1)	(-3,3)	
L2C 36>	(18,1)	(-16,20)	(24,2)	(15,1)	(-13,1)	(-27,1)	(-6,1)	(-7,1)	(3,1)	(1,2)	(-4,1)	(-18,1)	(-34,2)	(14,4)	(-21,2)	(-1,3)	
L2C 37>	(-38,3)	(-1,6)	(-18,2)	(10,1)	(-20,1)	(-41,2)	(-2,2)	(14,5)	(-7,2)	(-26,1)	(-19,3)	(-24,1)	(15,1)	(-22,1)	(-15,1)	(13,2)	
L2C 38>	(13,1)	(-3,1)	(-34,1)	(-13,1)	(-43,1)	(-1,3)	(-12,1)	(1,2)	(-17,1)	(2,1)	(-36,3)	(-30,3)	(-37,2)	(-4,1)	(-52,1)	(-8,2)	
L2C 39>	(-1,3)	(-15,2)	(-8,1)	(-49,1)	(-4,1)	(-20,1)	(-3,1)	(-37,1)	(-31,1)	(-19,1)	(-22,1)	(-36,1)	(-33,1)	(12,1)	(-32,1)	(19,1)	
L2C 40>	(-19,1)	(-36,1)	(-39,2)	(-1,18)	(1,4)	(-59,1)	(-50,1)	(-15,1)	(7,1)	(2,1)	(-24,1)	(-38,1)	(-37,1)	(14,1)	(-5,1)	(-8,2)	
L2C 41>	(9,1)	(-28,1)	(-1,10)	(-40,1)	(-21,1)	(-37,1)	(1,5)	(-18,1)	(2,3)	(-20,1)	(13,1)	(-15,1)	(-30,1)	(-48,2)	(-39,1)	(-4,1)	
L2C 42>	(-26,2)	(-45,2)	(-50,1)	(-22,1)	(-44,1)	(-41,2)	(-49,1)	(-33,1)	(-17,1)	(4,5)	(-1,1)	(1,3)	(-10,1)	(-4,2)	(-13,8)	(-57,1)	
L2C 43>	(2,1)	(-41,2)	(-46,1)	(1,1)	(-7,1)	(-1,1)	(-62,1)	(-16,2)	(-11,1)	(-39,1)	(-13,1)	(-48,1)	(7,1)	(-55,2)	(-38,1)	(-20,1)	
L2C 44>	(-16,1)	(1,3)	(-17,1)	(-4,1)	(-43,1)	(-46,2)	(-24,1)	(-55,2)	(-35,1)	(-23,1)	(-32,1)	(5,1)	(-50,2)	(-13,1)	(3,1)	(-45,1)	
L2C 45>	(-14,1)	(-44,5)	(-42,1)	(-23,1)	(-15,1)	(-46,3)	(-10,1)	(1,1)	(-49,1)	(-50,2)	(-17,1)	(-30,2)	(-13,2)	(-29,2)	(0,1)	(-53,1)	
L2C 46>	(5,1)	(-46,4)	(1,3)	(-10,1)	(-18,1)	(-11,1)	(-14,2)	(-43,2)	(-50,2)	(-27,2)	(-45,1)	(-54,1)	(-51,1)	(-44,1)	(-47,2)	(-26,1)	
L2C 47>	(3,1)	(-48,2)	(-2,1)	(1,3)	(-34,3)	(-46,3)	(-44,2)	(-28,2)	(-41,1)	(-63,2)	(-30,2)	(-43,1)	(-29,1)	(-50,3)	(-25,2)	(-1,1)	
L2C 48>	(-55,1)	(4,1)	(-26,1)	(-3,1)	(-39,1)	(-51,1)	(-34,1)	(-1,1)	(-45,1)	(-13,2)	(-37,2)	(-35,1)	(-46,1)	(-2,1)	(-12,1)	(-53,1)	
L2C 49>	(-44,2)	(0,2)	(-34,1)	(-4,2)	(-50,1)	(4,1)	(-51,3)	(-21,1)	(-48,1)	(-36,1)	(-46,2)	(-1,2)	(-55,1)	(-16,1)	(1,1)	(-42,1)	
L2C 50>	(-44,2)	(-1,1)	(-38,1)	(-14,1)	(-45,1)	(-58,1)	(-20,1)	(-19,1)	(-49,2)	(-39,1)	(-34,1)	(-52,1)	(-43,1)	(-54,1)	(-15,1)	(-9,1)	
L2C 51>	(-1,3)	(-41,1)	(-16,1)	(1,12)	(-33,2)	(-19,1)	(8,1)	(-8,1)	(-50,2)	(-31,1)	(-4,1)	(2,1)	(-35,1)	(-39,1)	(-49,2)	(-28,1)	
L2C 52>	(-46,2)	(-21,2)	(-50,1)	(-36,1)	(1,0)	(1,0)	(1,0)	(1,0)	(1,0)	(1,0)	(1,0)	(1,0)	(1,0)	(1,0)	(1,0)	(1,0)	
L2C 53>	(-5,1)	(-17,1)	(-13,1)	(-46,4)	(-4,1)	(-23,1)	(-51,1)	(-1,1)	(-52,5)	(-36,1)	(-31,1)	(-37,1)	(-3,1)	(1,0)	(1,0)	(1,0)	
L2C 54>	(-51,1)	(-10,1)	(-53,4)	(-46,1)	(-1,1)	(1,1)	(-28,1)	(1,0)	(1,0)	(1,0)	(1,0)	(1,0)	(1,0)	(1,0)	(1,0)	(1,0)	
L2C 55>	(1,3)	(0,1)	(-1,1)	(-27,1)	(-56,1)	(-36,1)	(-46,1)	(-32,1)	(-39,1)	(-52,1)	(-54,1)	(1,0)	(1,0)	(1,0)	(1,0)	(1,0)	
L2C 56>	(-1,3)	(1,1)	(-8,1)	(-59,1)	(-49,1)	(-37,1)	(-36,1)	(1,0)	(1,0)	(1,0)	(1,0)	(1,0)	(1,0)	(1,0)	(1,0)	(1,0)	
L2C 57>	(-18,1)	(-53,1)	(1,0)	(1,0)	(1,0)	(1,0)	(1,0)	(1,0)	(1,0)	(1,0)	(1,0)	(1,0)	(1,0)	(1,0)	(1,0)	(1,0)	
L2C 58>	(1,1)	(-1,4)	(-23,1)	(-55,1)	(-4,1)	(1,0)	(1,0)	(1,0)	(1,0)	(1,0)	(1,0)	(1,0)	(1,0)	(1,0)	(1,0)	(1,0)	
L2C 59>	(-20,1)	(-21,1)	(-48,1)	(-1,18)	(-59,1)	(1,3)	(-27,3)	(-12,1)	(-9,1)	(1,0)	(1,0)	(1,0)	(1,0)	(1,0)	(1,0)	(1,0)	
L2C 60>	(1,2)	(-1,2)	(2,2)	(-61,1)	(1,0)	(1,0)	(1,0)	(1,0)	(1,0)	(1,0)	(1,0)	(1,0)	(1,0)	(1,0)	(1,0)	(1,0)	
L2C 61>	(-61,2)	(1,1)	(-1,9)	(-17,1)	(-33,1)	(-29,1)	(1,0)	(1,0)	(1,0)	(1,0)	(1,0)	(1,0)	(1,0)	(1,0)	(1,0)	(1,0)	
L2C 62>	(-1,1)	(1,1)	(-4,1)	(1,0)	(1,0)	(1,0)	(1,0)	(1,0)	(1,0)	(1,0)	(1,0)	(1,0)	(1,0)	(1,0)	(1,0)	(1,0)	
L2C 63>	(1,0)	(1,0)	(1,0)	(1,0)	(1,0)	(1,0)	(1,0)	(1,0)	(1,0)	(1,0)	(1,0)	(1,0)	(1,0)	(1,0)	(1,0)	(1,0)	

DRAM Statistics
 CHANNEL 0
 RQ ROW_BUFFER_HIT:       2471  ROW_BUFFER_MISS:       2646
 DBUS_CONGESTED:       3892
 WQ ROW_BUFFER_HIT:          0  ROW_BUFFER_MISS:          0  FULL:          0

 AVG_CONGESTED_CYCLE: 6
