
*** ChampSim Multicore Out-of-Order Simulator ***

Warmup Instructions: 1000000
Simulation Instructions: 10000000
Number of CPUs: 1
LLC sets: 2048
LLC ways: 16
Off-chip DRAM Size: 4096 MB Channels: 1 Width: 64-bit Data Rate: 3200 MT/s

CPU 0 runs /home/virtualcse/Data-Prefetching/ChampSim/dpc3_traces/641.leela_s-800B.champsimtrace.xz
Ultra pref. initializing...
Ultra pref. initialized
Ultra pref. initializing...
Ultra pref. initialized

Warmup complete CPU 0 instructions: 1000001 cycles: 420867 (Simulation time: 0 hr 0 min 2 sec) 

Heartbeat CPU 0 instructions: 10000002 cycles: 10311940 heartbeat IPC: 0.96975 cumulative IPC: 0.909912 (Simulation time: 0 hr 0 min 15 sec) 
Finished CPU 0 instructions: 10000001 cycles: 10984236 cumulative IPC: 0.910396 (Simulation time: 0 hr 0 min 16 sec) 

CPU 0 Branch Prediction Accuracy: 84.4719% MPKI: 16.2312 Average ROB Occupancy at Mispredict: 30.4666

ChampSim completed all CPUs

Region of Interest Statistics

CPU 0 cumulative IPC: 0.910396 instructions: 10000001 cycles: 10984236
L1D TOTAL     ACCESS:    6554051  HIT:    6515691  MISS:      38360
L1D LOAD      ACCESS:    1930405  HIT:    1915402  MISS:      15003
L1D RFO       ACCESS:    1131085  HIT:    1129095  MISS:       1990
L1D PREFETCH  ACCESS:    3492561  HIT:    3471194  MISS:      21367
L1D WRITEBACK ACCESS:          0  HIT:          0  MISS:          0
L1D PREFETCH  REQUESTED:   29740842  ISSUED:   26186050  USEFUL:       9683  USELESS:      15455
L1D AVERAGE MISS LATENCY: 21.3793 cycles
L1I TOTAL     ACCESS:     998525  HIT:     998008  MISS:        517
L1I LOAD      ACCESS:     998525  HIT:     998008  MISS:        517
L1I RFO       ACCESS:          0  HIT:          0  MISS:          0
L1I PREFETCH  ACCESS:          0  HIT:          0  MISS:          0
L1I WRITEBACK ACCESS:          0  HIT:          0  MISS:          0
L1I PREFETCH  REQUESTED:          0  ISSUED:          0  USEFUL:          0  USELESS:          0
L1I AVERAGE MISS LATENCY: 13.4468 cycles
L2C TOTAL     ACCESS:     228667  HIT:     219983  MISS:       8684
L2C LOAD      ACCESS:      15207  HIT:      14573  MISS:        634
L2C RFO       ACCESS:       1989  HIT:       1989  MISS:          0
L2C PREFETCH  ACCESS:     206974  HIT:     198925  MISS:       8049
L2C WRITEBACK ACCESS:       4497  HIT:       4496  MISS:          1
L2C PREFETCH  REQUESTED:     586036  ISSUED:     394264  USEFUL:       2228  USELESS:       6746
L2C AVERAGE MISS LATENCY: 128.096 cycles
LLC TOTAL     ACCESS:       8855  HIT:       4184  MISS:       4671
LLC LOAD      ACCESS:        630  HIT:        299  MISS:        331
LLC RFO       ACCESS:          0  HIT:          0  MISS:          0
LLC PREFETCH  ACCESS:       8053  HIT:       3713  MISS:       4340
LLC WRITEBACK ACCESS:        172  HIT:        172  MISS:          0
LLC PREFETCH  REQUESTED:          0  ISSUED:          0  USEFUL:        155  USELESS:          0
LLC AVERAGE MISS LATENCY: 182.3 cycles
Major fault: 0 Minor fault: 342

L1D -512>	(1,12)	(-119,2)	(-21,2)	(-1,27)	(0,117)	(2,3)	(-8,36)	(3,2)	(-28,2)	(-186,1)	(38,1)	(4,2)	(8,1)	(-24,1)	(-245,1)	(267,1)	
L1D -511>	(1,13)	(289,1)	(1,0)	(1,0)	(1,0)	(1,0)	(1,0)	(1,0)	(1,0)	(1,0)	(1,0)	(1,0)	(1,0)	(1,0)	(1,0)	(1,0)	
L1D -510>	(173,1)	(289,1)	(10,1)	(284,1)	(510,1)	(1,0)	(1,0)	(1,0)	(1,0)	(1,0)	(1,0)	(1,0)	(1,0)	(1,0)	(1,0)	(1,0)	
L1D -509>	(10,17)	(288,2)	(509,4)	(289,1)	(11,1)	(172,1)	(1,0)	(1,0)	(1,0)	(1,0)	(1,0)	(1,0)	(1,0)	(1,0)	(1,0)	(1,0)	
L1D -508>	(10,26)	(287,3)	(282,6)	(1,0)	(1,0)	(1,0)	(1,0)	(1,0)	(1,0)	(1,0)	(1,0)	(1,0)	(1,0)	(1,0)	(1,0)	(1,0)	
L1D -507>	(10,8)	(281,1)	(1,0)	(1,0)	(1,0)	(1,0)	(1,0)	(1,0)	(1,0)	(1,0)	(1,0)	(1,0)	(1,0)	(1,0)	(1,0)	(1,0)	
L1D -506>	(11,3)	(1,0)	(1,0)	(1,0)	(1,0)	(1,0)	(1,0)	(1,0)	(1,0)	(1,0)	(1,0)	(1,0)	(1,0)	(1,0)	(1,0)	(1,0)	
L1D -505>	(284,3)	(172,1)	(289,1)	(10,1)	(11,2)	(505,1)	(288,1)	(1,0)	(1,0)	(1,0)	(1,0)	(1,0)	(1,0)	(1,0)	(1,0)	(1,0)	
L1D -504>	(11,5)	(280,1)	(10,4)	(172,7)	(283,2)	(282,1)	(173,1)	(278,1)	(1,0)	(1,0)	(1,0)	(1,0)	(1,0)	(1,0)	(1,0)	(1,0)	
L1D -503>	(11,4)	(172,2)	(282,4)	(276,1)	(10,3)	(503,2)	(286,2)	(171,1)	(1,0)	(1,0)	(1,0)	(1,0)	(1,0)	(1,0)	(1,0)	(1,0)	
L1D -502>	(287,2)	(11,1)	(281,7)	(502,1)	(10,7)	(171,4)	(170,2)	(286,1)	(1,0)	(1,0)	(1,0)	(1,0)	(1,0)	(1,0)	(1,0)	(1,0)	
L1D -501>	(294,1)	(169,8)	(280,7)	(170,3)	(10,2)	(1,0)	(1,0)	(1,0)	(1,0)	(1,0)	(1,0)	(1,0)	(1,0)	(1,0)	(1,0)	(1,0)	
L1D -500>	(279,4)	(10,1)	(11,1)	(169,2)	(273,2)	(278,1)	(274,2)	(495,1)	(1,0)	(1,0)	(1,0)	(1,0)	(1,0)	(1,0)	(1,0)	(1,0)	
L1D -499>	(283,2)	(288,1)	(0,1)	(173,2)	(10,5)	(11,2)	(278,2)	(172,1)	(277,1)	(1,0)	(1,0)	(1,0)	(1,0)	(1,0)	(1,0)	(1,0)	
L1D -498>	(282,4)	(277,3)	(286,2)	(10,5)	(11,3)	(281,1)	(172,2)	(173,1)	(171,2)	(1,0)	(1,0)	(1,0)	(1,0)	(1,0)	(1,0)	(1,0)	
L1D -497>	(281,2)	(10,1)	(171,2)	(497,2)	(282,5)	(275,1)	(276,1)	(287,1)	(11,1)	(1,0)	(1,0)	(1,0)	(1,0)	(1,0)	(1,0)	(1,0)	
L1D -496>	(280,4)	(281,1)	(11,1)	(169,2)	(10,2)	(285,2)	(170,1)	(1,0)	(1,0)	(1,0)	(1,0)	(1,0)	(1,0)	(1,0)	(1,0)	(1,0)	
L1D -495>	(10,4)	(495,2)	(279,2)	(169,2)	(284,1)	(1,0)	(1,0)	(1,0)	(1,0)	(1,0)	(1,0)	(1,0)	(1,0)	(1,0)	(1,0)	(1,0)	
L1D -494>	(10,3)	(284,1)	(283,1)	(279,1)	(11,1)	(1,0)	(1,0)	(1,0)	(1,0)	(1,0)	(1,0)	(1,0)	(1,0)	(1,0)	(1,0)	(1,0)	
L1D -493>	(281,1)	(10,1)	(287,1)	(11,3)	(277,1)	(493,5)	(283,1)	(172,1)	(276,1)	(1,0)	(1,0)	(1,0)	(1,0)	(1,0)	(1,0)	(1,0)	
L1D -492>	(286,1)	(11,5)	(10,4)	(287,1)	(172,1)	(492,3)	(282,1)	(1,0)	(1,0)	(1,0)	(1,0)	(1,0)	(1,0)	(1,0)	(1,0)	(1,0)	
L1D -491>	(281,4)	(11,6)	(10,3)	(491,3)	(275,1)	(170,3)	(286,1)	(1,0)	(1,0)	(1,0)	(1,0)	(1,0)	(1,0)	(1,0)	(1,0)	(1,0)	
L1D -490>	(279,1)	(10,4)	(278,1)	(170,1)	(280,2)	(11,2)	(169,1)	(1,0)	(1,0)	(1,0)	(1,0)	(1,0)	(1,0)	(1,0)	(1,0)	(1,0)	
L1D -489>	(273,1)	(11,3)	(10,1)	(279,1)	(1,0)	(1,0)	(1,0)	(1,0)	(1,0)	(1,0)	(1,0)	(1,0)	(1,0)	(1,0)	(1,0)	(1,0)	
L1D -488>	(0,1)	(488,4)	(11,3)	(281,2)	(1,0)	(1,0)	(1,0)	(1,0)	(1,0)	(1,0)	(1,0)	(1,0)	(1,0)	(1,0)	(1,0)	(1,0)	
L1D -487>	(277,5)	(11,6)	(171,1)	(487,2)	(10,1)	(1,0)	(1,0)	(1,0)	(1,0)	(1,0)	(1,0)	(1,0)	(1,0)	(1,0)	(1,0)	(1,0)	
L1D -486>	(276,2)	(170,2)	(285,1)	(169,1)	(486,4)	(171,1)	(271,1)	(281,1)	(1,0)	(1,0)	(1,0)	(1,0)	(1,0)	(1,0)	(1,0)	(1,0)	
L1D -485>	(169,3)	(285,2)	(279,1)	(11,1)	(485,1)	(10,1)	(1,0)	(1,0)	(1,0)	(1,0)	(1,0)	(1,0)	(1,0)	(1,0)	(1,0)	(1,0)	
L1D -484>	(284,1)	(273,1)	(163,1)	(278,1)	(174,1)	(484,2)	(173,2)	(169,1)	(1,0)	(1,0)	(1,0)	(1,0)	(1,0)	(1,0)	(1,0)	(1,0)	
L1D -483>	(10,4)	(11,1)	(273,1)	(1,0)	(1,0)	(1,0)	(1,0)	(1,0)	(1,0)	(1,0)	(1,0)	(1,0)	(1,0)	(1,0)	(1,0)	(1,0)	
L1D -482>	(276,4)	(11,3)	(282,1)	(271,4)	(482,1)	(171,2)	(10,1)	(1,0)	(1,0)	(1,0)	(1,0)	(1,0)	(1,0)	(1,0)	(1,0)	(1,0)	
L1D -481>	(275,3)	(10,3)	(11,3)	(481,1)	(171,1)	(276,1)	(1,0)	(1,0)	(1,0)	(1,0)	(1,0)	(1,0)	(1,0)	(1,0)	(1,0)	(1,0)	
L1D -480>	(270,1)	(10,3)	(275,1)	(1,0)	(1,0)	(1,0)	(1,0)	(1,0)	(1,0)	(1,0)	(1,0)	(1,0)	(1,0)	(1,0)	(1,0)	(1,0)	
L1D -479>	(169,1)	(258,1)	(267,1)	(1,0)	(1,0)	(1,0)	(1,0)	(1,0)	(1,0)	(1,0)	(1,0)	(1,0)	(1,0)	(1,0)	(1,0)	(1,0)	
L1D -478>	(11,1)	(478,1)	(10,1)	(1,0)	(1,0)	(1,0)	(1,0)	(1,0)	(1,0)	(1,0)	(1,0)	(1,0)	(1,0)	(1,0)	(1,0)	(1,0)	
L1D -477>	(289,1)	(10,4)	(11,3)	(272,3)	(271,2)	(267,1)	(166,1)	(281,1)	(1,0)	(1,0)	(1,0)	(1,0)	(1,0)	(1,0)	(1,0)	(1,0)	
L1D -476>	(282,1)	(271,6)	(11,3)	(281,1)	(-10,1)	(476,3)	(10,3)	(1,0)	(1,0)	(1,0)	(1,0)	(1,0)	(1,0)	(1,0)	(1,0)	(1,0)	
L1D -475>	(266,1)	(10,3)	(11,2)	(475,1)	(265,2)	(133,1)	(169,1)	(1,0)	(1,0)	(1,0)	(1,0)	(1,0)	(1,0)	(1,0)	(1,0)	(1,0)	
L1D -474>	(10,4)	(265,1)	(280,1)	(274,1)	(475,1)	(1,0)	(1,0)	(1,0)	(1,0)	(1,0)	(1,0)	(1,0)	(1,0)	(1,0)	(1,0)	(1,0)	
L1D -473>	(473,2)	(207,1)	(10,2)	(274,1)	(272,1)	(318,1)	(412,1)	(1,0)	(1,0)	(1,0)	(1,0)	(1,0)	(1,0)	(1,0)	(1,0)	(1,0)	
L1D -472>	(301,1)	(21,1)	(472,1)	(266,1)	(1,0)	(1,0)	(1,0)	(1,0)	(1,0)	(1,0)	(1,0)	(1,0)	(1,0)	(1,0)	(1,0)	(1,0)	
L1D -471>	(265,1)	(11,2)	(270,1)	(1,0)	(1,0)	(1,0)	(1,0)	(1,0)	(1,0)	(1,0)	(1,0)	(1,0)	(1,0)	(1,0)	(1,0)	(1,0)	
L1D -470>	(11,1)	(10,1)	(1,0)	(1,0)	(1,0)	(1,0)	(1,0)	(1,0)	(1,0)	(1,0)	(1,0)	(1,0)	(1,0)	(1,0)	(1,0)	(1,0)	
L1D -469>	(11,1)	(1,0)	(1,0)	(1,0)	(1,0)	(1,0)	(1,0)	(1,0)	(1,0)	(1,0)	(1,0)	(1,0)	(1,0)	(1,0)	(1,0)	(1,0)	
L1D -468>	(10,1)	(11,1)	(333,1)	(206,1)	(162,1)	(1,0)	(1,0)	(1,0)	(1,0)	(1,0)	(1,0)	(1,0)	(1,0)	(1,0)	(1,0)	(1,0)	
L1D -467>	(11,11)	(284,5)	(0,5)	(1,5)	(289,25)	(162,1)	(467,1)	(10,2)	(124,1)	(279,4)	(268,1)	(399,3)	(395,2)	(394,2)	(410,2)	(261,1)	
L1D -466>	(288,16)	(283,2)	(274,1)	(0,1)	(278,7)	(272,1)	(120,1)	(10,23)	(1,4)	(261,3)	(277,3)	(101,1)	(151,1)	(388,2)	(11,3)	(-1,1)	
L1D -465>	(11,7)	(260,2)	(266,1)	(10,2)	(261,1)	(398,1)	(288,7)	(273,1)	(276,1)	(465,1)	(433,1)	(104,1)	(1,0)	(1,0)	(1,0)	(1,0)	
L1D -464>	(288,3)	(287,4)	(10,2)	(282,4)	(0,1)	(1,1)	(464,1)	(75,1)	(1,0)	(1,0)	(1,0)	(1,0)	(1,0)	(1,0)	(1,0)	(1,0)	
L1D -463>	(287,40)	(0,3)	(1,4)	(276,3)	(281,1)	(301,1)	(107,1)	(122,1)	(50,1)	(331,1)	(101,1)	(263,1)	(10,5)	(392,1)	(21,2)	(277,3)	
L1D -462>	(462,4)	(0,2)	(270,4)	(11,2)	(251,1)	(276,2)	(286,48)	(10,4)	(287,2)	(252,1)	(386,5)	(275,8)	(16,1)	(401,1)	(281,1)	(402,1)	
L1D -461>	(271,1)	(1,5)	(0,2)	(21,1)	(286,8)	(277,1)	(10,2)	(385,1)	(275,10)	(11,2)	(12,1)	(402,1)	(4,1)	(1,0)	(1,0)	(1,0)	
L1D -460>	(0,3)	(385,1)	(1,10)	(280,2)	(285,6)	(11,2)	(270,1)	(30,1)	(401,1)	(10,2)	(263,1)	(275,1)	(56,1)	(1,0)	(1,0)	(1,0)	
L1D -459>	(1,4)	(401,4)	(274,24)	(285,42)	(10,12)	(406,3)	(275,4)	(374,2)	(11,10)	(384,13)	(396,3)	(395,15)	(53,1)	(459,1)	(280,2)	(279,1)	
L1D -458>	(0,5)	(57,1)	(458,2)	(279,6)	(284,41)	(384,20)	(274,15)	(395,8)	(377,1)	(21,2)	(10,9)	(47,1)	(383,3)	(35,1)	(289,1)	(408,1)	
L1D -457>	(273,4)	(10,3)	(457,8)	(-4,2)	(1,6)	(0,2)	(97,2)	(26,1)	(383,8)	(284,17)	(459,1)	(62,1)	(-2,1)	(11,7)	(57,1)	(45,1)	
L1D -456>	(11,23)	(273,16)	(388,1)	(283,22)	(278,1)	(0,2)	(383,10)	(6,1)	(394,3)	(-3,1)	(-10,2)	(10,9)	(456,1)	(236,1)	(241,1)	(109,1)	
L1D -455>	(252,1)	(1,2)	(20,1)	(272,3)	(9,1)	(277,1)	(11,4)	(94,1)	(96,1)	(10,4)	(237,1)	(382,4)	(58,1)	(0,1)	(283,2)	(383,2)	
L1D -454>	(282,22)	(34,1)	(50,1)	(0,1)	(260,1)	(272,4)	(404,1)	(10,4)	(454,2)	(265,1)	(261,1)	(1,0)	(1,0)	(1,0)	(1,0)	(1,0)	
L1D -453>	(1,1)	(282,11)	(271,12)	(11,4)	(260,1)	(381,7)	(277,1)	(392,4)	(10,2)	(370,1)	(1,0)	(1,0)	(1,0)	(1,0)	(1,0)	(1,0)	
L1D -452>	(1,19)	(0,5)	(402,3)	(10,5)	(270,3)	(281,34)	(381,4)	(17,1)	(12,1)	(392,1)	(-11,1)	(425,1)	(371,2)	(11,1)	(249,1)	(420,1)	
L1D -451>	(451,6)	(1,6)	(0,6)	(281,26)	(11,2)	(68,1)	(64,1)	(270,3)	(407,1)	(5,2)	(10,1)	(268,1)	(21,1)	(450,2)	(58,1)	(-5,1)	
L1D -450>	(1,5)	(-1,2)	(280,45)	(0,3)	(281,11)	(450,8)	(439,2)	(5,4)	(4,3)	(380,2)	(-2,2)	(396,1)	(374,1)	(429,1)	(10,3)	(-10,2)	
L1D -449>	(1,4)	(280,15)	(451,2)	(11,6)	(269,8)	(448,1)	(449,9)	(41,1)	(390,2)	(30,1)	(270,1)	(242,1)	(5,1)	(101,1)	(0,3)	(265,1)	
L1D -448>	(0,16)	(280,22)	(279,28)	(1,6)	(268,5)	(11,9)	(448,3)	(259,3)	(5,2)	(4,6)	(379,5)	(2,2)	(10,7)	(235,1)	(-12,1)	(374,2)	
L1D -447>	(11,3)	(279,57)	(425,2)	(378,4)	(284,1)	(238,2)	(-1,6)	(0,5)	(437,5)	(446,1)	(447,2)	(263,1)	(268,11)	(-11,1)	(235,1)	(85,1)	
L1D -446>	(1,3)	(0,2)	(10,6)	(6,3)	(445,3)	(11,2)	(426,2)	(2,1)	(435,6)	(425,5)	(4,18)	(447,2)	(279,7)	(278,13)	(-1,4)	(446,9)	
L1D -445>	(278,46)	(444,5)	(446,2)	(6,1)	(10,3)	(272,1)	(-9,1)	(0,7)	(1,9)	(-5,8)	(4,52)	(434,2)	(-12,1)	(445,8)	(435,2)	(-22,3)	
L1D -444>	(277,36)	(1,31)	(-1,3)	(0,5)	(-22,2)	(434,2)	(443,10)	(4,44)	(2,11)	(444,7)	(424,3)	(433,5)	(101,1)	(203,1)	(141,1)	(445,2)	
L1D -443>	(283,1)	(277,116)	(1,4)	(-21,77)	(0,9)	(8,1)	(-12,1)	(266,2)	(422,1)	(4,37)	(170,1)	(58,1)	(146,1)	(377,4)	(2,4)	(433,8)	
L1D -442>	(376,3)	(1,23)	(276,9)	(5,1)	(277,4)	(441,11)	(11,10)	(10,4)	(0,6)	(432,5)	(6,2)	(4,29)	(16,4)	(2,2)	(-21,4)	(161,2)	
L1D -441>	(0,6)	(1,32)	(380,3)	(276,24)	(441,9)	(10,10)	(442,1)	(-21,10)	(279,2)	(386,8)	(4,45)	(430,5)	(-22,7)	(440,5)	(-5,2)	(-1,7)	
L1D -440>	(0,4)	(1,45)	(439,3)	(275,15)	(4,14)	(-21,3)	(3,4)	(419,11)	(375,8)	(359,7)	(10,2)	(429,7)	(-22,9)	(391,1)	(267,1)	(-1,2)	
L1D -439>	(1,76)	(-5,8)	(438,4)	(275,14)	(418,7)	(439,2)	(385,4)	(0,7)	(-21,9)	(419,2)	(429,2)	(4,27)	(10,2)	(440,1)	(124,1)	(2,7)	
L1D -438>	(1,120)	(4,47)	(275,6)	(-1,4)	(274,11)	(385,7)	(0,6)	(438,10)	(374,10)	(11,12)	(427,8)	(450,1)	(437,13)	(3,2)	(10,4)	(379,10)	
L1D -437>	(1,77)	(0,2)	(274,25)	(437,7)	(10,1)	(436,6)	(2,3)	(3,1)	(21,1)	(-22,1)	(373,4)	(426,2)	(263,1)	(355,1)	(4,18)	(374,5)	
L1D -436>	(1,105)	(436,5)	(273,8)	(425,7)	(-22,3)	(288,3)	(-1,10)	(267,1)	(4,34)	(3,4)	(2,24)	(11,7)	(415,23)	(0,4)	(141,3)	(426,4)	
L1D -435>	(1,64)	(11,25)	(273,5)	(138,5)	(4,35)	(434,4)	(415,6)	(353,5)	(435,4)	(2,10)	(-21,3)	(414,5)	(16,6)	(425,4)	(0,1)	(424,6)	
L1D -434>	(1,104)	(4,37)	(16,2)	(414,2)	(-21,6)	(413,20)	(3,13)	(423,9)	(0,1)	(434,2)	(150,1)	(21,1)	(75,1)	(-2,2)	(2,7)	(433,19)	
L1D -433>	(1,101)	(423,3)	(0,2)	(387,2)	(2,3)	(272,5)	(422,4)	(11,3)	(4,16)	(432,4)	(353,2)	(433,3)	(-1,4)	(444,1)	(382,2)	(5,1)	
L1D -432>	(0,9)	(1,123)	(3,6)	(-1,4)	(411,11)	(279,2)	(421,14)	(-22,3)	(433,3)	(272,4)	(432,2)	(4,3)	(11,2)	(5,1)	(431,7)	(-5,1)	
L1D -431>	(399,2)	(1,117)	(0,4)	(409,2)	(271,17)	(-1,2)	(-5,1)	(10,3)	(371,2)	(431,1)	(16,2)	(421,1)	(420,8)	(4,20)	(11,5)	(430,1)	
L1D -430>	(3,4)	(1,77)	(270,8)	(430,5)	(370,0)	(0,9)	(-21,1)	(271,1)	(10,5)	(9,1)	(429,8)	(-1,2)	(4,26)	(419,6)	(-22,0)	(431,3)	
L1D -429>	(0,13)	(270,9)	(1,92)	(408,14)	(419,17)	(-1,8)	(3,1)	(418,29)	(428,8)	(11,3)	(-22,1)	(9,6)	(430,1)	(4,10)	(10,15)	(2,3)	
L1D -428>	(-4,5)	(1,75)	(4,22)	(10,2)	(269,3)	(0,6)	(417,4)	(-5,1)	(418,11)	(-21,2)	(427,1)	(428,1)	(16,1)	(407,9)	(380,1)	(379,1)	
L1D -427>	(4,49)	(269,9)	(0,5)	(1,83)	(142,1)	(406,5)	(417,6)	(411,3)	(405,3)	(396,1)	(11,1)	(-4,12)	(426,3)	(416,12)	(2,1)	(353,2)	
L1D -426>	(416,2)	(268,2)	(1,104)	(346,1)	(0,7)	(425,3)	(415,5)	(4,26)	(404,1)	(405,13)	(10,4)	(-21,1)	(368,2)	(-24,1)	(373,1)	(437,2)	
L1D -425>	(1,104)	(424,5)	(414,36)	(-6,4)	(415,9)	(426,5)	(403,3)	(-4,10)	(0,16)	(268,7)	(4,24)	(-21,1)	(404,6)	(435,4)	(-1,6)	(436,2)	
L1D -424>	(425,5)	(1,80)	(-1,1)	(0,3)	(-6,4)	(378,3)	(-4,1)	(10,2)	(4,13)	(373,1)	(403,9)	(413,13)	(414,11)	(435,1)	(267,3)	(9,3)	
L1D -423>	(402,20)	(411,5)	(1,123)	(433,3)	(4,47)	(353,7)	(-6,8)	(0,21)	(401,4)	(2,1)	(267,4)	(434,3)	(413,5)	(422,7)	(10,4)	(412,21)	
L1D -422>	(-4,9)	(266,4)	(0,14)	(1,88)	(422,2)	(10,8)	(274,2)	(-6,2)	(-1,2)	(411,8)	(400,2)	(421,4)	(401,7)	(4,6)	(-7,2)	(3,1)	
L1D -421>	(-22,8)	(266,6)	(1,77)	(410,23)	(-6,1)	(144,1)	(421,6)	(0,3)	(411,9)	(11,2)	(400,16)	(-1,3)	(431,4)	(9,4)	(4,12)	(3,1)	
L1D -420>	(2,4)	(265,6)	(0,8)	(-6,1)	(-1,2)	(10,3)	(1,103)	(410,4)	(430,9)	(399,14)	(-4,10)	(431,2)	(4,32)	(409,5)	(398,2)	(408,3)	
L1D -419>	(265,7)	(254,2)	(1,92)	(429,17)	(0,8)	(10,1)	(-4,8)	(-2,1)	(430,8)	(4,53)	(408,14)	(419,10)	(287,1)	(-6,6)	(398,22)	(353,5)	
L1D -418>	(1,81)	(396,1)	(419,7)	(407,7)	(0,5)	(429,5)	(-1,2)	(10,12)	(428,8)	(9,5)	(-4,5)	(-21,3)	(264,7)	(408,2)	(4,6)	(397,18)	
L1D -417>	(1,93)	(4,35)	(286,2)	(407,2)	(428,11)	(0,4)	(-4,10)	(406,6)	(-22,2)	(-6,4)	(222,1)	(11,3)	(403,1)	(364,3)	(408,2)	(264,15)	
L1D -416>	(-22,3)	(3,3)	(417,3)	(406,1)	(1,104)	(4,23)	(0,3)	(-6,3)	(395,12)	(263,29)	(415,1)	(10,4)	(426,7)	(405,8)	(-18,1)	(2,3)	
L1D -415>	(0,5)	(395,1)	(1,71)	(425,8)	(404,10)	(393,5)	(416,4)	(4,17)	(277,2)	(426,5)	(263,3)	(285,1)	(10,4)	(-21,1)	(405,1)	(21,1)	
L1D -414>	(1,86)	(0,6)	(287,1)	(403,8)	(425,4)	(404,3)	(4,12)	(277,1)	(393,18)	(-21,4)	(-6,8)	(262,3)	(11,3)	(10,4)	(3,2)	(9,1)	
L1D -413>	(-4,27)	(0,8)	(10,5)	(1,94)	(392,16)	(4,22)	(391,5)	(423,10)	(262,2)	(9,3)	(143,2)	(353,3)	(414,2)	(6,1)	(403,1)	(402,17)	
L1D -412>	(0,5)	(1,78)	(391,10)	(-4,9)	(4,24)	(390,1)	(401,9)	(412,1)	(422,9)	(423,6)	(2,2)	(261,9)	(10,6)	(402,1)	(-21,2)	(413,2)	
L1D -411>	(0,10)	(261,13)	(11,1)	(1,78)	(-4,7)	(389,2)	(-6,3)	(400,8)	(273,1)	(390,12)	(412,1)	(10,3)	(421,7)	(9,6)	(4,19)	(422,9)	
L1D -410>	(0,8)	(1,89)	(420,8)	(-10,1)	(260,8)	(388,6)	(2,3)	(4,39)	(432,15)	(288,11)	(410,3)	(389,23)	(9,8)	(3,5)	(399,10)	(360,10)	
L1D -409>	(0,6)	(260,10)	(1,74)	(410,1)	(-4,11)	(419,11)	(409,3)	(-6,3)	(-7,1)	(365,1)	(431,4)	(4,37)	(387,1)	(398,6)	(10,9)	(399,4)	
L1D -408>	(1,121)	(10,9)	(409,16)	(0,29)	(4,41)	(359,29)	(397,14)	(9,1)	(419,21)	(387,74)	(281,7)	(259,25)	(408,13)	(136,7)	(-11,5)	(360,5)	
L1D -407>	(1,95)	(418,5)	(386,14)	(282,4)	(0,3)	(429,14)	(408,1)	(417,7)	(11,1)	(10,1)	(406,2)	(3,2)	(259,1)	(4,34)	(-4,32)	(-6,2)	
L1D -406>	(0,14)	(285,3)	(417,9)	(428,42)	(4,55)	(-6,9)	(1,124)	(259,7)	(258,18)	(3,4)	(396,5)	(11,11)	(395,13)	(-35,1)	(407,4)	(385,20)	
L1D -405>	(0,10)	(-21,5)	(258,14)	(-5,1)	(1,83)	(4,10)	(9,2)	(283,2)	(415,5)	(273,5)	(427,3)	(11,10)	(10,4)	(384,8)	(289,2)	(394,9)	
L1D -404>	(415,5)	(0,17)	(-21,1)	(1,109)	(9,4)	(383,19)	(393,23)	(10,10)	(11,18)	(426,29)	(414,21)	(273,2)	(2,5)	(4,17)	(-10,5)	(394,3)	
L1D -403>	(413,12)	(24,1)	(1,103)	(414,16)	(10,8)	(0,14)	(382,30)	(-4,13)	(425,18)	(4,28)	(403,2)	(392,24)	(393,4)	(9,13)	(11,6)	(257,14)	
L1D -402>	(1,100)	(4,30)	(10,15)	(0,21)	(11,4)	(256,13)	(270,1)	(276,7)	(424,16)	(412,9)	(381,26)	(282,4)	(391,15)	(413,9)	(-4,5)	(286,5)	
L1D -401>	(0,9)	(1,71)	(256,13)	(-21,9)	(390,12)	(11,7)	(285,5)	(412,3)	(380,16)	(9,1)	(411,7)	(-4,9)	(4,22)	(10,3)	(402,2)	(423,14)	
L1D -400>	(-10,1)	(1,109)	(4,32)	(389,11)	(410,17)	(422,9)	(284,8)	(255,20)	(269,5)	(-1,4)	(278,8)	(411,5)	(-4,12)	(11,21)	(-21,12)	(379,22)	
L1D -399>	(0,6)	(1,80)	(255,8)	(283,5)	(-4,8)	(410,10)	(278,3)	(288,10)	(9,8)	(388,9)	(4,27)	(6,1)	(421,17)	(408,9)	(10,10)	(378,11)	
L1D -398>	(1,121)	(0,18)	(-4,1)	(377,23)	(4,32)	(287,3)	(408,3)	(288,9)	(10,9)	(282,5)	(420,5)	(254,16)	(387,21)	(3,7)	(-5,2)	(11,6)	
L1D -397>	(-4,13)	(277,2)	(0,7)	(376,30)	(4,17)	(1,103)	(270,2)	(386,17)	(276,8)	(281,12)	(286,5)	(254,6)	(-11,3)	(11,16)	(419,6)	(407,4)	
L1D -396>	(407,7)	(-22,13)	(397,9)	(375,26)	(-6,1)	(4,31)	(1,116)	(285,6)	(280,15)	(-4,8)	(2,6)	(385,26)	(253,11)	(418,15)	(11,8)	(406,8)	
L1D -395>	(10,1)	(405,8)	(1,65)	(0,8)	(274,6)	(4,21)	(11,6)	(374,6)	(-4,7)	(253,11)	(417,7)	(284,8)	(385,1)	(384,16)	(285,4)	(406,4)	
L1D -394>	(416,4)	(384,9)	(6,1)	(1,98)	(10,18)	(383,21)	(0,12)	(288,19)	(373,31)	(352,2)	(404,13)	(278,7)	(11,13)	(-10,2)	(274,2)	(283,5)	
L1D -393>	(11,11)	(288,40)	(282,7)	(1,126)	(10,20)	(403,10)	(404,1)	(0,20)	(283,8)	(277,8)	(4,17)	(-4,14)	(415,19)	(382,10)	(372,19)	(252,7)	
L1D -392>	(0,16)	(4,23)	(381,21)	(1,106)	(10,7)	(-10,8)	(11,10)	(414,40)	(371,25)	(287,14)	(402,7)	(403,8)	(-4,17)	(271,2)	(276,12)	(281,16)	
L1D -391>	(1,64)	(0,8)	(370,10)	(251,6)	(11,7)	(401,1)	(286,5)	(280,4)	(275,4)	(10,8)	(-11,5)	(4,17)	(380,15)	(-4,10)	(-21,1)	(392,2)	
L1D -390>	(-10,1)	(0,3)	(278,1)	(1,66)	(359,1)	(400,4)	(285,20)	(412,7)	(279,4)	(10,6)	(380,3)	(401,4)	(379,13)	(-4,5)	(4,21)	(369,15)	
L1D -389>	(378,12)	(11,5)	(400,8)	(10,14)	(1,83)	(379,12)	(0,6)	(4,22)	(268,4)	(9,2)	(-4,9)	(279,6)	(399,3)	(283,13)	(278,13)	(368,23)	
L1D -388>	(0,7)	(1,77)	(-10,4)	(288,5)	(399,10)	(4,25)	(398,7)	(-4,1)	(10,7)	(367,10)	(378,6)	(-21,5)	(377,7)	(283,18)	(-11,3)	(410,10)	
L1D -387>	(272,3)	(-21,1)	(1,64)	(11,9)	(377,0)	(249,7)	(10,4)	(376,10)	(398,8)	(282,8)	(287,2)	(271,7)	(366,18)	(4,15)	(0,5)	(276,3)	
L1D -386>	(264,1)	(1,112)	(248,5)	(3,4)	(396,18)	(9,16)	(276,15)	(375,20)	(11,10)	(10,20)	(4,12)	(-21,4)	(281,8)	(270,11)	(408,39)	(365,22)	
L1D -385>	(386,4)	(1,72)	(285,6)	(4,20)	(374,3)	(395,9)	(0,5)	(274,1)	(364,12)	(406,5)	(-21,5)	(269,7)	(11,7)	(248,13)	(280,13)	(264,3)	
L1D -384>	(-22,2)	(-4,3)	(1,87)	(279,24)	(10,24)	(263,5)	(363,13)	(385,5)	(373,25)	(0,7)	(9,8)	(274,3)	(11,15)	(247,26)	(-21,2)	(395,8)	
L1D -383>	(4,22)	(372,16)	(393,32)	(1,126)	(247,12)	(-4,9)	(-22,4)	(-21,12)	(278,15)	(0,7)	(362,39)	(11,18)	(283,8)	(361,6)	(10,19)	(2,1)	
L1D -382>	(276,3)	(-4,12)	(371,11)	(11,11)	(9,10)	(0,13)	(4,21)	(1,92)	(393,8)	(266,3)	(403,5)	(361,13)	(10,8)	(271,9)	(-10,5)	(404,13)	
L1D -381>	(286,4)	(-22,11)	(391,19)	(1,100)	(-4,11)	(0,10)	(392,9)	(4,22)	(10,16)	(265,5)	(11,14)	(370,24)	(246,5)	(-21,1)	(360,27)	(270,15)	
L1D -380>	(369,20)	(1,127)	(402,30)	(390,22)	(275,23)	(270,8)	(264,12)	(0,18)	(11,8)	(4,39)	(245,5)	(10,16)	(286,9)	(9,17)	(274,7)	(391,1)	
L1D -379>	(390,13)	(401,17)	(369,15)	(-22,15)	(274,12)	(1,92)	(389,9)	(368,13)	(279,1)	(400,2)	(4,28)	(358,23)	(-1,2)	(-21,10)	(10,11)	(9,12)	
L1D -378>	(1,124)	(6,1)	(400,25)	(357,21)	(379,4)	(9,8)	(-21,9)	(4,26)	(273,15)	(389,7)	(272,10)	(367,11)	(388,12)	(11,8)	(262,4)	(368,8)	
L1D -377>	(387,3)	(399,17)	(266,4)	(1,69)	(286,2)	(11,7)	(0,1)	(388,3)	(272,6)	(244,3)	(-4,6)	(-11,2)	(277,8)	(4,11)	(-21,4)	(356,13)	
L1D -376>	(354,1)	(10,19)	(365,10)	(1,89)	(255,8)	(4,8)	(355,18)	(281,3)	(265,4)	(270,10)	(398,16)	(243,9)	(-4,7)	(386,18)	(0,11)	(11,13)	
L1D -375>	(386,10)	(1,85)	(0,11)	(270,11)	(353,10)	(397,21)	(354,12)	(-1,1)	(385,19)	(376,3)	(-11,12)	(-4,10)	(264,6)	(259,11)	(265,4)	(-21,3)	
L1D -374>	(364,1)	(385,10)	(1,100)	(10,14)	(258,3)	(-11,11)	(396,24)	(353,16)	(0,6)	(4,30)	(274,3)	(269,12)	(9,2)	(11,2)	(-21,6)	(242,8)	
L1D -373>	(1,76)	(362,1)	(383,11)	(0,9)	(9,3)	(273,3)	(267,2)	(395,15)	(4,17)	(242,10)	(-22,7)	(-10,5)	(11,10)	(352,17)	(268,4)	(-21,3)	
L1D -372>	(-4,7)	(10,9)	(0,7)	(394,20)	(2,8)	(356,1)	(1,86)	(261,3)	(9,4)	(11,9)	(382,11)	(241,3)	(-21,8)	(361,7)	(4,13)	(351,25)	
L1D -371>	(361,1)	(0,11)	(382,8)	(266,23)	(10,18)	(11,9)	(1,86)	(255,6)	(-10,14)	(281,3)	(265,5)	(-11,16)	(353,3)	(350,18)	(381,11)	(393,27)	
L1D -370>	(264,9)	(349,14)	(359,14)	(0,11)	(-22,5)	(-11,1)	(265,18)	(380,17)	(-21,7)	(360,12)	(259,6)	(1,66)	(11,13)	(10,20)	(4,21)	(392,25)	
L1D -369>	(11,13)	(253,9)	(3,2)	(391,18)	(264,32)	(358,13)	(9,15)	(1,84)	(-22,17)	(0,9)	(348,31)	(4,26)	(280,13)	(10,20)	(-11,6)	(269,3)	
L1D -368>	(0,8)	(369,8)	(378,22)	(379,14)	(347,48)	(1,112)	(4,37)	(-22,15)	(-21,10)	(257,1)	(251,6)	(390,23)	(10,19)	(9,16)	(258,7)	(263,16)	
L1D -367>	(239,8)	(1,93)	(345,1)	(0,13)	(377,21)	(389,37)	(4,30)	(137,2)	(376,5)	(346,18)	(2,3)	(261,12)	(-21,20)	(272,30)	(256,6)	(-4,42)	
L1D -366>	(4,31)	(355,1)	(1,99)	(0,15)	(-22,37)	(271,19)	(255,13)	(250,12)	(-21,6)	(256,7)	(-10,18)	(276,5)	(388,23)	(11,14)	(-11,25)	(261,43)	
L1D -365>	(375,35)	(-21,34)	(259,26)	(-11,42)	(-1,11)	(10,36)	(4,15)	(249,27)	(0,21)	(1,117)	(376,1)	(238,28)	(11,21)	(261,14)	(254,22)	(260,24)	
L1D -364>	(0,16)	(386,25)	(-21,14)	(9,10)	(10,14)	(269,3)	(259,18)	(1,87)	(253,10)	(374,18)	(2,1)	(11,9)	(249,7)	(248,4)	(398,5)	(365,3)	
L1D -363>	(247,17)	(-21,19)	(0,10)	(237,18)	(354,4)	(353,4)	(29,1)	(4,18)	(1,83)	(10,18)	(253,18)	(385,26)	(258,14)	(374,22)	(11,28)	(-11,14)	
L1D -362>	(236,11)	(0,14)	(1,119)	(4,15)	(251,20)	(-10,21)	(262,4)	(373,6)	(384,18)	(11,32)	(-11,23)	(350,1)	(372,30)	(9,12)	(257,12)	(-21,17)	
L1D -361>	(371,21)	(10,9)	(0,12)	(261,9)	(-21,17)	(250,7)	(372,1)	(11,20)	(1,98)	(255,16)	(-22,8)	(383,42)	(382,15)	(4,20)	(236,12)	(256,17)	
L1D -360>	(349,7)	(10,34)	(16,2)	(1,120)	(254,19)	(0,19)	(250,9)	(382,27)	(-4,5)	(235,17)	(255,19)	(371,14)	(249,32)	(-21,25)	(256,8)	(346,22)	
L1D -359>	(369,30)	(0,9)	(259,31)	(381,1)	(254,41)	(235,30)	(4,24)	(1,100)	(10,40)	(9,19)	(335,22)	(248,30)	(11,24)	(-21,7)	(-22,13)	(370,20)	
L1D -358>	(242,15)	(1,88)	(11,13)	(380,27)	(247,12)	(246,8)	(379,9)	(-21,21)	(4,13)	(248,3)	(9,19)	(-10,1)	(234,7)	(334,15)	(0,3)	(253,13)	
L1D -357>	(11,5)	(3,70)	(4,17)	(246,6)	(1,34)	(10,8)	(9,1)	(241,3)	(-21,3)	(379,10)	(0,3)	(234,18)	(252,11)	(-11,6)	(368,2)	(336,2)	
L1D -356>	(10,1)	(266,1)	(345,2)	(1,5)	(251,3)	(378,5)	(2,115)	(0,12)	(11,1)	(4,2)	(-2,1)	(-22,5)	(240,1)	(-10,1)	(-11,2)	(346,1)	
L1D -355>	(2,60)	(377,34)	(-21,18)	(0,56)	(249,7)	(266,8)	(256,8)	(1,87)	(376,1)	(10,14)	(233,7)	(4,39)	(366,5)	(244,12)	(255,11)	(239,12)	
L1D -354>	(364,1)	(1,8)	(-22,1)	(238,3)	(-21,4)	(10,1)	(-2,70)	(370,1)	(376,3)	(244,1)	(-11,1)	(377,2)	(419,1)	(249,2)	(243,2)	(11,3)	
L1D -353>	(1,109)	(321,2)	(4,3)	(0,3)	(248,8)	(237,3)	(11,8)	(232,6)	(2,4)	(-2,3)	(353,5)	(375,9)	(-10,9)	(10,4)	(364,3)	(-21,4)	
L1D -352>	(0,95)	(-5,4)	(236,3)	(151,1)	(139,7)	(351,99)	(373,4)	(11,7)	(134,6)	(1,8)	(-1,14)	(-2,2)	(2,38)	(135,6)	(142,4)	(131,3)	
L1D -351>	(351,81)	(0,8)	(1,33)	(-4,50)	(-2,3)	(-1,3)	(231,29)	(362,11)	(363,1)	(246,18)	(10,16)	(4,8)	(11,18)	(361,6)	(256,3)	(373,20)	
L1D -350>	(1,86)	(371,1)	(17,1)	(-113,1)	(147,1)	(230,1)	(-46,0)	(-11,0)	(350,0)	(10,0)	(11,1)	(339,0)	(372,3)	(256,0)	(-21,0)	(235,0)	
L1D -349>	(0,17)	(-11,11)	(1,107)	(-21,2)	(244,34)	(233,11)	(10,35)	(249,12)	(230,60)	(376,12)	(254,6)	(360,12)	(239,13)	(11,52)	(238,9)	(371,29)	
L1D -348>	(242,4)	(1,123)	(-11,6)	(-21,7)	(243,16)	(237,7)	(258,4)	(229,11)	(11,7)	(10,5)	(370,7)	(0,3)	(-22,10)	(16,1)	(332,2)	(-10,10)	
L1D -347>	(236,16)	(11,36)	(1,103)	(240,7)	(246,1)	(242,19)	(241,53)	(237,14)	(10,29)	(0,17)	(229,29)	(-10,16)	(369,52)	(4,10)	(-21,14)	(329,8)	
L1D -346>	(1,112)	(240,1)	(4,1)	(-63,1)	(357,1)	(368,2)	(11,0)	(241,0)	(225,0)	(10,0)	(246,0)	(-21,0)	(162,0)	(3,0)	(235,0)	(356,0)	
L1D -345>	(346,14)	(1,79)	(234,1)	(-22,3)	(-21,1)	(4,3)	(11,1)	(335,0)	(334,0)	(-10,0)	(10,0)	(240,1)	(261,0)	(-11,1)	(178,0)	(355,0)	
L1D -344>	(0,25)	(343,123)	(137,7)	(238,3)	(260,5)	(-11,7)	(1,27)	(-8,17)	(2,34)	(5,35)	(345,2)	(145,3)	(239,11)	(-22,5)	(10,10)	(366,3)	
L1D -343>	(344,110)	(132,1)	(-10,1)	(10,1)	(5,4)	(-21,1)	(238,2)	(327,2)	(11,2)	(227,3)	(332,1)	(311,1)	(1,2)	(163,2)	(-8,14)	(162,1)	
L1D -342>	(232,35)	(326,17)	(1,52)	(2,50)	(342,19)	(0,13)	(242,37)	(-21,42)	(341,8)	(-14,80)	(-12,48)	(237,24)	(10,28)	(347,1)	(-8,22)	(-22,12)	
L1D -341>	(0,10)	(220,1)	(251,8)	(-11,34)	(342,30)	(236,25)	(226,67)	(230,8)	(361,15)	(10,31)	(-21,37)	(351,12)	(-10,20)	(1,21)	(240,6)	(11,12)	
L1D -340>	(-14,12)	(-16,6)	(-22,72)	(-21,68)	(9,8)	(11,10)	(-10,28)	(235,13)	(1,48)	(250,7)	(4,7)	(230,28)	(229,23)	(240,8)	(-11,12)	(275,1)	
L1D -339>	(-21,50)	(1,47)	(229,28)	(238,8)	(225,45)	(0,10)	(-11,36)	(234,62)	(244,8)	(240,9)	(361,13)	(350,11)	(10,31)	(11,4)	(223,1)	(-5,25)	
L1D -338>	(-5,58)	(6,1)	(232,10)	(238,44)	(-21,32)	(236,10)	(224,14)	(-13,81)	(1,18)	(10,13)	(248,3)	(339,116)	(-22,15)	(322,3)	(-11,23)	(233,21)	
L1D -337>	(0,22)	(-2,16)	(-4,11)	(-5,24)	(232,43)	(10,39)	(236,25)	(224,28)	(-22,25)	(1,27)	(11,15)	(-21,50)	(237,25)	(21,1)	(359,16)	(227,15)	
L1D -336>	(-22,8)	(-4,4)	(-2,3)	(1,65)	(10,1)	(255,1)	(223,8)	(0,4)	(4,3)	(231,21)	(247,2)	(230,27)	(-21,8)	(11,7)	(224,3)	(235,16)	
L1D -335>	(223,32)	(322,1)	(10,29)	(229,14)	(357,13)	(-10,16)	(1,34)	(235,51)	(0,14)	(230,80)	(-21,29)	(335,6)	(351,4)	(345,14)	(-11,25)	(-22,24)	
L1D -334>	(233,28)	(0,12)	(255,10)	(174,3)	(-11,38)	(-21,9)	(228,19)	(229,109)	(234,41)	(10,23)	(334,13)	(1,44)	(9,6)	(2,1)	(356,8)	(-22,28)	
L1D -333>	(1,5)	(-50,1)	(333,92)	(129,0)	(-21,0)	(10,1)	(345,0)	(228,3)	(323,0)	(346,1)	(182,0)	(233,2)	(-48,0)	(222,0)	(-11,0)	(3,0)	
L1D -332>	(1,83)	(321,1)	(221,5)	(311,2)	(343,1)	(227,2)	(11,1)	(-169,1)	(0,1)	(264,1)	(237,1)	(-22,2)	(332,1)	(-11,0)	(-21,0)	(10,2)	
L1D -331>	(226,83)	(-11,32)	(10,27)	(-22,41)	(246,19)	(231,16)	(1,45)	(0,45)	(110,18)	(225,21)	(-21,18)	(253,9)	(331,14)	(115,1)	(342,15)	(2,20)	
L1D -330>	(330,18)	(112,1)	(11,6)	(0,4)	(225,21)	(224,39)	(-21,21)	(-11,16)	(-2,110)	(352,7)	(236,15)	(10,10)	(351,2)	(230,5)	(1,20)	(359,4)	
L1D -329>	(228,3)	(0,7)	(224,15)	(1,83)	(223,16)	(11,6)	(-11,15)	(187,1)	(2,4)	(-2,6)	(329,6)	(351,5)	(148,2)	(-22,4)	(-10,2)	(229,6)	
L1D -328>	(114,4)	(0,69)	(327,78)	(223,25)	(11,12)	(233,13)	(1,12)	(2,39)	(10,1)	(112,6)	(-11,19)	(109,21)	(115,6)	(-22,9)	(54,12)	(107,5)	
L1D -327>	(231,6)	(232,6)	(227,12)	(1,14)	(-11,16)	(-21,35)	(-22,20)	(-10,13)	(254,5)	(349,11)	(-4,18)	(327,43)	(221,1)	(375,6)	(10,19)	(11,12)	
L1D -326>	(-10,2)	(230,19)	(242,4)	(10,9)	(0,5)	(253,9)	(232,6)	(226,6)	(1,96)	(259,4)	(11,2)	(-5,1)	(-100,1)	(243,1)	(9,3)	(-21,4)	
L1D -325>	(4,6)	(-10,7)	(226,3)	(-11,12)	(11,7)	(1,19)	(369,4)	(225,6)	(0,7)	(230,42)	(229,9)	(347,4)	(10,6)	(224,10)	(253,8)	(260,1)	
L1D -324>	(3,4)	(229,33)	(0,7)	(346,11)	(224,11)	(1,110)	(-11,12)	(-22,12)	(339,5)	(223,12)	(188,1)	(-21,7)	(250,6)	(355,2)	(10,9)	(258,7)	
L1D -323>	(1,31)	(-11,33)	(228,17)	(229,16)	(345,20)	(0,3)	(223,12)	(222,15)	(2,3)	(11,10)	(10,10)	(-21,18)	(188,1)	(-7,2)	(-22,13)	(233,3)	
L1D -322>	(227,3)	(241,1)	(1,77)	(-156,1)	(154,1)	(-22,18)	(159,1)	(10,5)	(0,1)	(-11,8)	(-21,4)	(262,1)	(182,1)	(222,4)	(156,1)	(11,3)	
L1D -321>	(322,14)	(228,3)	(226,5)	(10,3)	(0,3)	(189,2)	(1,66)	(232,2)	(11,1)	(-21,3)	(-11,10)	(-10,4)	(124,1)	(338,4)	(184,1)	(180,1)	
L1D -320>	(-21,10)	(319,112)	(5,18)	(247,9)	(0,24)	(-11,10)	(10,5)	(2,12)	(11,7)	(165,1)	(231,4)	(225,2)	(346,2)	(144,3)	(181,2)	(227,5)	
L1D -319>	(1,6)	(320,124)	(319,5)	(-22,4)	(229,3)	(-8,12)	(183,2)	(10,3)	(11,7)	(189,1)	(-21,8)	(184,1)	(345,1)	(146,3)	(264,1)	(0,4)	
L1D -318>	(179,3)	(251,1)	(228,4)	(1,8)	(11,6)	(10,15)	(-14,18)	(-12,16)	(-8,5)	(-21,13)	(-10,3)	(181,2)	(258,3)	(238,7)	(191,3)	(-22,45)	
L1D -317>	(229,3)	(-10,5)	(227,10)	(254,6)	(-11,7)	(222,4)	(10,13)	(-21,25)	(164,1)	(11,3)	(122,2)	(159,2)	(225,2)	(249,2)	(154,3)	(1,2)	
L1D -316>	(1,6)	(248,5)	(225,9)	(242,1)	(-15,3)	(227,9)	(11,3)	(229,3)	(-21,4)	(343,2)	(254,7)	(10,12)	(-11,7)	(237,9)	(190,2)	(222,2)	
L1D -315>	(1,10)	(10,6)	(182,2)	(-21,4)	(-11,6)	(144,2)	(147,2)	(-5,6)	(224,2)	(248,2)	(227,4)	(11,5)	(253,3)	(159,2)	(225,8)	(51,1)	
L1D -314>	(315,23)	(-5,7)	(11,6)	(1,8)	(-11,4)	(224,8)	(-22,5)	(10,9)	(-21,5)	(253,4)	(-10,2)	(158,1)	(226,3)	(0,2)	(342,4)	(-13,22)	
L1D -313>	(11,1)	(152,2)	(10,3)	(1,2)	(0,2)	(-11,9)	(223,7)	(252,2)	(177,3)	(192,2)	(228,3)	(179,3)	(178,3)	(224,3)	(168,2)	(157,2)	
L1D -312>	(0,5)	(312,5)	(184,3)	(228,3)	(223,11)	(1,35)	(180,4)	(-21,11)	(-20,1)	(-11,16)	(193,2)	(175,3)	(170,2)	(151,2)	(236,2)	(10,7)	
L1D -311>	(1,5)	(10,12)	(-22,3)	(11,7)	(-21,13)	(184,2)	(-11,5)	(236,7)	(243,5)	(223,2)	(155,1)	(504,1)	(170,1)	(0,2)	(152,1)	(-20,1)	
L1D -310>	(11,9)	(342,3)	(-21,7)	(235,2)	(152,2)	(226,5)	(100,1)	(127,2)	(10,7)	(-10,2)	(2,7)	(154,1)	(173,1)	(4,1)	(123,1)	(-11,4)	
L1D -309>	(11,1)	(122,1)	(-11,2)	(124,1)	(5,1)	(256,1)	(0,1)	(147,2)	(249,1)	(309,85)	(1,9)	(245,1)	(145,1)	(-21,4)	(242,1)	(156,1)	
L1D -308>	(1,91)	(191,2)	(233,2)	(232,1)	(164,1)	(158,1)	(11,1)	(192,3)	(-21,4)	(176,1)	(272,1)	(301,1)	(186,1)	(169,2)	(152,1)	(159,1)	
L1D -307>	(174,1)	(-22,4)	(222,13)	(234,2)	(233,4)	(1,6)	(253,2)	(158,2)	(10,8)	(169,2)	(194,2)	(175,4)	(161,2)	(176,2)	(307,2)	(11,4)	
L1D -306>	(232,6)	(16,40)	(3,2)	(183,2)	(2,4)	(243,4)	(1,5)	(147,2)	(166,4)	(231,1)	(-11,9)	(4,1)	(-21,5)	(249,2)	(169,1)	(223,7)	
L1D -305>	(232,7)	(1,4)	(243,2)	(10,8)	(11,5)	(-21,5)	(305,2)	(179,1)	(222,11)	(-11,4)	(4,1)	(-33,1)	(-134,1)	(128,1)	(304,1)	(-166,1)	
L1D -304>	(51,3)	(48,7)	(4,3)	(55,4)	(54,2)	(159,4)	(-22,4)	(248,3)	(-21,5)	(242,4)	(10,2)	(152,1)	(52,4)	(45,2)	(44,3)	(57,3)	
L1D -303>	(176,3)	(188,3)	(232,2)	(-21,3)	(10,5)	(0,2)	(-22,4)	(11,6)	(193,4)	(191,2)	(21,1)	(160,1)	(154,2)	(247,2)	(244,1)	(186,3)	
L1D -302>	(3,2)	(11,9)	(-21,4)	(-11,2)	(138,2)	(194,2)	(178,3)	(193,3)	(1,6)	(152,2)	(192,2)	(-32,2)	(190,4)	(10,2)	(244,3)	(50,1)	
L1D -301>	(123,2)	(222,5)	(21,2)	(238,5)	(127,2)	(170,1)	(-11,7)	(11,9)	(-21,3)	(1,6)	(252,1)	(10,12)	(151,1)	(242,1)	(147,1)	(298,1)	
L1D -300>	(230,7)	(1,17)	(0,3)	(148,2)	(-21,8)	(289,39)	(237,4)	(169,2)	(11,5)	(174,2)	(161,2)	(2,1)	(4,1)	(162,2)	(157,3)	(243,2)	
L1D -299>	(10,6)	(1,7)	(0,5)	(242,2)	(170,2)	(11,11)	(165,2)	(288,105)	(-22,9)	(230,5)	(237,3)	(240,2)	(149,2)	(283,2)	(289,40)	(162,1)	
L1D -298>	(288,8)	(218,2)	(1,9)	(11,5)	(4,3)	(-21,19)	(229,6)	(287,19)	(0,3)	(239,8)	(169,2)	(10,5)	(37,1)	(47,1)	(151,1)	(301,1)	
L1D -297>	(1,6)	(11,13)	(158,3)	(286,31)	(0,2)	(226,2)	(189,2)	(287,62)	(194,2)	(-21,2)	(216,2)	(139,2)	(-11,4)	(154,2)	(281,1)	(253,1)	
L1D -296>	(0,7)	(285,8)	(-11,6)	(1,55)	(241,7)	(10,15)	(-10,2)	(286,9)	(227,4)	(146,2)	(280,1)	(24,1)	(22,1)	(-21,3)	(27,1)	(162,2)	
L1D -295>	(10,5)	(0,3)	(285,23)	(1,4)	(11,12)	(227,3)	(-22,2)	(119,2)	(238,2)	(284,54)	(2,2)	(243,3)	(154,5)	(151,1)	(226,1)	(367,1)	
L1D -294>	(170,2)	(405,2)	(1,7)	(166,2)	(0,2)	(288,3)	(283,7)	(186,2)	(237,4)	(289,6)	(11,20)	(284,29)	(10,3)	(278,1)	(409,1)	(272,1)	
L1D -293>	(181,1)	(10,12)	(4,2)	(288,10)	(1,9)	(282,124)	(11,29)	(-22,2)	(239,3)	(172,5)	(283,13)	(177,3)	(-21,7)	(152,2)	(132,2)	(294,4)	
L1D -292>	(1,56)	(185,1)	(3,6)	(276,4)	(287,9)	(164,2)	(282,8)	(-21,6)	(4,4)	(11,26)	(281,11)	(148,3)	(194,3)	(176,11)	(-10,3)	(10,4)	
L1D -291>	(1,15)	(11,35)	(234,6)	(0,3)	(-21,7)	(158,1)	(176,3)	(286,15)	(275,3)	(3,2)	(-11,2)	(281,39)	(280,32)	(10,5)	(285,8)	(236,4)	
L1D -290>	(152,1)	(10,9)	(11,56)	(285,19)	(184,2)	(1,9)	(279,34)	(238,2)	(225,3)	(232,5)	(-21,3)	(280,26)	(-11,3)	(145,2)	(241,3)	(-10,2)	
L1D -289>	(284,10)	(11,56)	(394,5)	(294,8)	(1,19)	(0,10)	(279,11)	(10,23)	(278,19)	(-21,2)	(289,8)	(165,1)	(280,1)	(380,1)	(467,9)	(-11,2)	
L1D -288>	(410,15)	(293,30)	(294,5)	(11,77)	(21,7)	(404,9)	(466,58)	(409,16)	(394,8)	(288,15)	(393,51)	(283,29)	(10,40)	(367,1)	(278,8)	(388,17)	
L1D -287>	(277,47)	(1,30)	(281,19)	(463,24)	(292,32)	(0,24)	(10,27)	(465,7)	(387,20)	(392,39)	(276,21)	(-21,5)	(293,8)	(87,1)	(11,30)	(402,5)	
L1D -286>	(10,31)	(286,18)	(292,47)	(386,35)	(281,28)	(291,125)	(276,41)	(11,59)	(0,13)	(222,5)	(462,76)	(1,34)	(391,8)	(-11,5)	(418,5)	(275,1)	
L1D -285>	(280,14)	(1,14)	(390,27)	(459,19)	(274,18)	(290,96)	(11,33)	(395,4)	(401,6)	(10,18)	(275,27)	(291,7)	(0,17)	(279,8)	(385,3)	(410,1)	
L1D -284>	(278,1)	(215,3)	(10,31)	(383,6)	(458,51)	(279,22)	(289,33)	(11,46)	(290,48)	(9,8)	(384,12)	(389,10)	(395,4)	(1,40)	(274,36)	(170,3)	
L1D -283>	(1,19)	(457,7)	(388,21)	(10,40)	(0,13)	(456,39)	(278,23)	(288,96)	(234,4)	(-21,8)	(383,15)	(11,22)	(372,26)	(289,1)	(273,27)	(378,4)	
L1D -282>	(11,36)	(277,14)	(287,18)	(288,14)	(1,22)	(271,17)	(0,4)	(387,7)	(10,33)	(455,3)	(382,7)	(272,67)	(171,3)	(-11,1)	(276,13)	(282,13)	
L1D -281>	(286,23)	(1,16)	(391,37)	(10,79)	(0,18)	(397,14)	(452,54)	(11,98)	(367,1)	(396,4)	(386,9)	(271,34)	(376,4)	(370,4)	(270,6)	(276,21)	
L1D -280>	(369,13)	(0,23)	(396,1)	(375,5)	(385,36)	(285,23)	(11,67)	(269,37)	(280,21)	(450,53)	(380,56)	(449,52)	(1,122)	(275,40)	(270,25)	(10,104)	
L1D -279>	(-11,14)	(1,18)	(384,53)	(284,106)	(279,25)	(458,55)	(447,59)	(285,47)	(269,29)	(268,37)	(448,32)	(10,104)	(379,33)	(157,1)	(274,47)	(11,59)	
L1D -278>	(52,1)	(446,31)	(1,11)	(273,17)	(272,7)	(383,15)	(268,45)	(-21,12)	(267,54)	(10,34)	(-11,24)	(0,13)	(445,29)	(278,21)	(283,28)	(11,6)	
L1D -277>	(282,54)	(11,49)	(0,6)	(1,13)	(272,18)	(231,6)	(377,21)	(283,12)	(-11,1)	(267,58)	(393,17)	(266,45)	(10,19)	(152,3)	(444,9)	(367,3)	
L1D -276>	(1,69)	(11,82)	(270,11)	(-11,12)	(282,22)	(271,33)	(281,104)	(392,1)	(268,4)	(381,21)	(171,10)	(441,37)	(10,46)	(266,23)	(366,6)	(231,12)	
L1D -275>	(1,26)	(270,41)	(280,66)	(275,2)	(10,58)	(264,79)	(441,5)	(375,7)	(440,38)	(230,6)	(269,9)	(380,13)	(0,11)	(11,44)	(265,21)	(391,23)	
L1D -274>	(379,34)	(-21,10)	(274,26)	(437,83)	(279,40)	(1,40)	(11,67)	(10,81)	(264,23)	(280,47)	(263,51)	(233,5)	(0,13)	(406,1)	(-11,10)	(2,9)	
L1D -273>	(0,12)	(373,21)	(436,25)	(10,56)	(268,8)	(262,58)	(278,16)	(11,36)	(1,22)	(263,26)	(389,2)	(-21,4)	(-11,13)	(4,2)	(273,12)	(435,15)	
L1D -272>	(0,9)	(277,29)	(1,90)	(357,3)	(377,24)	(443,28)	(11,90)	(267,27)	(262,13)	(433,17)	(383,13)	(-21,9)	(266,7)	(10,38)	(273,1)	(272,10)	
L1D -271>	(-11,17)	(276,70)	(277,25)	(-21,1)	(11,45)	(432,18)	(266,9)	(260,16)	(431,38)	(1,28)	(261,34)	(387,3)	(355,3)	(265,6)	(376,17)	(10,22)	
L1D -270>	(1,12)	(0,13)	(430,92)	(275,87)	(276,48)	(380,11)	(298,1)	(429,22)	(11,42)	(370,10)	(265,19)	(259,25)	(390,4)	(-11,10)	(264,5)	(260,35)	
L1D -269>	(1,28)	(369,17)	(259,64)	(427,66)	(263,14)	(274,123)	(379,1)	(10,49)	(428,34)	(275,45)	(0,13)	(-21,12)	(258,44)	(11,55)	(-11,14)	(374,14)	
L1D -268>	(384,6)	(1,54)	(368,4)	(426,9)	(10,29)	(274,32)	(262,5)	(258,9)	(-11,14)	(11,37)	(273,37)	(257,22)	(0,4)	(4,1)	(268,7)	(425,5)	
L1D -267>	(257,31)	(388,1)	(11,61)	(256,41)	(424,24)	(272,49)	(0,7)	(262,25)	(273,37)	(10,31)	(267,13)	(378,13)	(1,22)	(383,11)	(373,5)	(-11,5)	
L1D -266>	(371,24)	(271,60)	(272,52)	(10,94)	(376,9)	(-97,1)	(256,16)	(261,35)	(0,31)	(-11,13)	(421,43)	(1,41)	(11,95)	(255,25)	(260,9)	(382,17)	
L1D -265>	(381,6)	(420,49)	(156,1)	(10,74)	(-11,7)	(270,14)	(0,9)	(255,9)	(365,5)	(1,13)	(370,23)	(271,4)	(260,10)	(254,3)	(11,74)	(419,16)	
L1D -264>	(364,22)	(269,14)	(374,2)	(419,11)	(10,70)	(11,40)	(417,30)	(258,11)	(369,26)	(1,36)	(208,2)	(259,12)	(0,10)	(264,1)	(270,2)	(-11,5)	
L1D -263>	(363,19)	(268,32)	(1,17)	(269,48)	(379,5)	(258,22)	(253,93)	(417,1)	(11,32)	(416,45)	(263,5)	(384,9)	(10,60)	(352,3)	(0,6)	(20,4)	
L1D -262>	(1,25)	(11,57)	(-10,5)	(-21,14)	(378,18)	(251,45)	(267,110)	(390,1)	(252,31)	(10,31)	(268,57)	(0,28)	(415,15)	(362,9)	(257,12)	(-11,8)	
L1D -261>	(267,52)	(250,12)	(255,20)	(266,122)	(0,16)	(375,1)	(411,56)	(251,40)	(-11,15)	(256,25)	(10,33)	(361,17)	(366,36)	(362,4)	(1,36)	(9,5)	
L1D -260>	(-11,16)	(10,34)	(360,30)	(265,109)	(410,20)	(365,17)	(260,6)	(409,42)	(254,6)	(249,27)	(244,1)	(1,54)	(0,17)	(255,20)	(11,46)	(266,13)	
L1D -259>	(10,26)	(408,49)	(254,36)	(359,12)	(264,81)	(265,62)	(259,16)	(1,32)	(364,19)	(409,8)	(249,31)	(216,17)	(-11,16)	(11,52)	(248,62)	(4,1)	
L1D -258>	(262,1)	(358,13)	(406,55)	(263,21)	(374,12)	(264,37)	(10,83)	(405,50)	(324,3)	(253,31)	(369,3)	(-10,5)	(11,60)	(247,35)	(1,4)	(258,21)	
L1D -257>	(1,41)	(-10,5)	(403,84)	(357,32)	(251,18)	(262,25)	(0,29)	(10,45)	(11,127)	(263,6)	(252,27)	(-59,1)	(362,12)	(246,77)	(247,66)	(373,9)	
L1D -256>	(401,48)	(361,32)	(250,12)	(-11,19)	(1,112)	(261,38)	(-21,14)	(0,34)	(246,23)	(10,86)	(256,28)	(11,21)	(356,40)	(402,56)	(92,1)	(262,12)	
L1D -255>	(400,96)	(355,46)	(250,35)	(350,9)	(10,70)	(260,51)	(-11,19)	(399,120)	(1,41)	(249,14)	(156,1)	(360,37)	(244,27)	(0,19)	(21,5)	(11,38)	
L1D -254>	(0,14)	(10,30)	(254,1)	(359,22)	(243,30)	(249,20)	(370,9)	(398,97)	(259,123)	(11,29)	(260,54)	(354,22)	(-10,5)	(1,20)	(355,4)	(257,13)	
L1D -253>	(368,5)	(397,13)	(253,27)	(1,28)	(248,36)	(11,47)	(258,124)	(243,36)	(395,38)	(358,24)	(151,1)	(10,16)	(242,97)	(247,9)	(353,9)	(-10,6)	
L1D -252>	(10,45)	(0,11)	(11,45)	(257,88)	(352,6)	(246,17)	(1,91)	(252,13)	(393,73)	(247,18)	(357,1)	(370,3)	(-10,6)	(142,5)	(241,28)	(-21,4)	
L1D -251>	(240,45)	(-11,14)	(245,4)	(241,95)	(356,13)	(391,5)	(256,45)	(11,38)	(0,9)	(257,23)	(1,5)	(392,28)	(246,22)	(261,1)	(10,21)	(361,2)	
L1D -250>	(4,1)	(1,30)	(390,24)	(10,36)	(339,5)	(355,16)	(360,9)	(244,8)	(240,42)	(11,34)	(239,52)	(255,16)	(139,2)	(350,7)	(245,23)	(2,7)	
L1D -249>	(1,15)	(254,18)	(388,73)	(349,27)	(387,45)	(243,5)	(-11,11)	(354,31)	(0,11)	(238,33)	(244,21)	(234,1)	(10,87)	(239,32)	(11,45)	(365,17)	
L1D -248>	(387,26)	(348,35)	(10,56)	(0,18)	(364,28)	(11,64)	(254,7)	(353,63)	(354,9)	(1,77)	(386,39)	(152,2)	(238,17)	(248,14)	(243,26)	(369,6)	
L1D -247>	(1,17)	(252,15)	(242,9)	(253,9)	(384,38)	(347,12)	(10,42)	(236,70)	(241,6)	(383,28)	(0,15)	(11,22)	(237,37)	(152,1)	(352,13)	(-11,8)	
L1D -246>	(346,21)	(357,8)	(381,47)	(251,82)	(382,74)	(1,13)	(-11,14)	(0,3)	(361,3)	(252,29)	(235,52)	(241,23)	(351,30)	(11,56)	(236,68)	(10,1)	
L1D -245>	(234,51)	(251,64)	(10,33)	(361,12)	(1,14)	(250,42)	(397,1)	(11,119)	(235,98)	(239,7)	(350,5)	(0,7)	(380,34)	(356,12)	(-21,5)	(381,4)	
L1D -244>	(249,114)	(10,31)	(349,10)	(344,22)	(377,38)	(238,10)	(233,21)	(360,15)	(250,38)	(354,28)	(378,17)	(1,106)	(-11,24)	(11,1)	(239,29)	(0,7)	
L1D -243>	(348,5)	(233,98)	(376,32)	(375,21)	(248,94)	(1,21)	(10,41)	(219,5)	(338,6)	(232,55)	(0,16)	(122,1)	(-10,9)	(11,81)	(249,30)	(133,5)	
L1D -242>	(1,33)	(374,39)	(232,81)	(248,40)	(247,24)	(358,9)	(10,53)	(348,1)	(236,4)	(11,80)	(237,19)	(342,19)	(5,22)	(242,9)	(0,5)	(-10,7)	
L1D -241>	(1,21)	(346,17)	(-11,5)	(-10,3)	(0,16)	(372,66)	(236,26)	(11,69)	(246,24)	(347,7)	(10,58)	(247,5)	(241,7)	(371,14)	(340,2)	(-156,1)	
L1D -240>	(246,6)	(11,107)	(371,6)	(356,22)	(10,114)	(245,23)	(-11,5)	(0,13)	(240,7)	(235,27)	(340,12)	(370,23)	(-1,3)	(351,1)	(346,5)	(1,12)	
L1D -239>	(360,6)	(344,78)	(233,8)	(244,125)	(345,13)	(-11,19)	(368,43)	(355,34)	(367,30)	(10,59)	(245,52)	(234,25)	(0,27)	(11,80)	(227,1)	(1,21)	
L1D -238>	(366,91)	(244,57)	(10,23)	(343,47)	(243,110)	(338,38)	(333,4)	(355,4)	(233,29)	(11,72)	(0,16)	(-100,1)	(1,15)	(354,34)	(-11,22)	(317,5)	
L1D -237>	(242,73)	(232,14)	(11,28)	(364,18)	(243,33)	(10,19)	(6,17)	(-178,1)	(5,14)	(337,14)	(0,7)	(353,9)	(237,5)	(363,8)	(352,2)	(-172,2)	
L1D -236>	(10,33)	(5,24)	(361,57)	(236,16)	(362,35)	(230,5)	(241,99)	(1,5)	(341,13)	(0,14)	(-5,1)	(242,16)	(11,11)	(346,4)	(123,2)	(342,3)	
L1D -235>	(10,53)	(336,19)	(230,12)	(335,18)	(359,53)	(229,3)	(240,117)	(340,21)	(0,10)	(329,3)	(1,21)	(241,85)	(360,56)	(328,3)	(11,28)	(351,2)	
L1D -234>	(11,61)	(334,50)	(358,58)	(-100,1)	(357,66)	(335,13)	(223,2)	(333,9)	(239,37)	(240,54)	(10,121)	(228,9)	(135,3)	(344,8)	(0,19)	(1,26)	
L1D -233>	(333,51)	(228,11)	(-11,12)	(10,77)	(238,20)	(349,16)	(356,65)	(239,8)	(355,16)	(111,1)	(216,2)	(338,9)	(344,5)	(1,3)	(332,6)	(11,57)	
L1D -232>	(6,85)	(237,33)	(5,29)	(-11,15)	(354,58)	(227,28)	(332,37)	(353,54)	(337,35)	(10,105)	(336,5)	(0,23)	(327,15)	(355,18)	(11,91)	(321,2)	
L1D -231>	(5,72)	(326,4)	(236,14)	(121,7)	(-11,8)	(6,8)	(331,11)	(351,48)	(225,6)	(321,2)	(353,3)	(-102,1)	(10,23)	(116,2)	(111,2)	(352,8)	
L1D -230>	(1,14)	(336,5)	(346,2)	(-11,12)	(349,57)	(0,9)	(335,28)	(350,58)	(330,22)	(10,20)	(225,7)	(235,84)	(-21,2)	(224,6)	(331,3)	(325,7)	
L1D -229>	(329,7)	(229,8)	(358,3)	(224,5)	(234,90)	(-2,1)	(223,7)	(347,13)	(-10,6)	(334,20)	(339,3)	(348,66)	(-11,8)	(0,6)	(1,8)	(349,10)	
L1D -228>	(-21,7)	(1,7)	(323,15)	(346,46)	(10,46)	(223,6)	(233,79)	(333,28)	(222,3)	(221,1)	(204,3)	(228,7)	(-11,15)	(322,10)	(11,3)	(345,30)	
L1D -227>	(322,8)	(-11,20)	(343,11)	(221,10)	(327,6)	(332,16)	(227,19)	(10,25)	(6,105)	(5,1)	(0,17)	(232,47)	(321,4)	(316,13)	(344,21)	(233,3)	
L1D -226>	(216,4)	(5,108)	(0,25)	(116,9)	(221,14)	(326,3)	(342,4)	(110,14)	(10,22)	(95,1)	(199,2)	(6,23)	(226,24)	(341,13)	(231,16)	(-165,1)	
L1D -225>	(340,81)	(325,54)	(220,10)	(143,5)	(339,92)	(230,18)	(219,8)	(5,8)	(116,3)	(-11,18)	(-22,1)	(231,6)	(105,5)	(330,24)	(10,23)	(315,4)	
L1D -224>	(338,96)	(339,2)	(213,4)	(218,4)	(337,73)	(10,27)	(319,4)	(329,35)	(314,3)	(-11,17)	(325,4)	(324,69)	(230,4)	(229,20)	(313,4)	(11,2)	
L1D -223>	(336,80)	(218,6)	(335,61)	(217,14)	(-11,15)	(312,15)	(345,6)	(323,60)	(328,45)	(228,13)	(10,33)	(346,9)	(337,23)	(0,1)	(297,2)	(-22,7)	
L1D -222>	(0,11)	(227,16)	(1,11)	(335,22)	(322,51)	(334,70)	(217,11)	(327,19)	(222,24)	(312,8)	(10,35)	(111,15)	(212,4)	(110,1)	(-135,2)	(228,3)	
L1D -221>	(221,71)	(0,35)	(100,12)	(111,45)	(10,12)	(-1,4)	(5,31)	(121,4)	(211,1)	(321,12)	(216,7)	(-5,6)	(-135,8)	(6,34)	(110,44)	(332,29)	
L1D -220>	(220,69)	(221,82)	(-133,3)	(-131,44)	(5,16)	(6,29)	(-1,3)	(-136,3)	(110,15)	(-22,4)	(-11,21)	(0,10)	(-132,26)	(-129,6)	(-21,1)	(116,15)	
L1D -219>	(219,98)	(-109,8)	(10,14)	(-133,72)	(220,123)	(-11,42)	(-132,99)	(121,22)	(-134,5)	(-108,34)	(224,1)	(122,4)	(110,6)	(-130,17)	(116,42)	(11,13)	
L1D -218>	(218,92)	(-131,13)	(219,117)	(-134,72)	(-133,77)	(5,7)	(-135,11)	(-11,21)	(-207,1)	(10,30)	(-110,19)	(0,5)	(121,13)	(133,5)	(116,37)	(11,10)	
L1D -217>	(-111,12)	(217,105)	(218,83)	(-138,11)	(-136,5)	(5,7)	(-135,63)	(6,36)	(121,8)	(116,16)	(132,3)	(-134,61)	(-11,10)	(0,6)	(-139,13)	(10,14)	
L1D -216>	(217,40)	(116,10)	(216,79)	(5,26)	(0,11)	(-137,3)	(-136,33)	(-133,7)	(111,1)	(6,31)	(-151,2)	(-135,47)	(221,2)	(226,5)	(105,6)	(-5,42)	
L1D -215>	(215,82)	(216,74)	(-137,50)	(0,15)	(6,55)	(-138,4)	(116,14)	(122,4)	(-136,48)	(121,3)	(5,24)	(149,3)	(-5,15)	(111,39)	(11,1)	(-6,28)	
L1D -214>	(215,92)	(-141,17)	(214,74)	(-138,81)	(5,35)	(6,15)	(-142,7)	(111,42)	(0,13)	(148,7)	(115,1)	(-135,9)	(110,27)	(116,21)	(121,4)	(-137,70)	
L1D -213>	(116,14)	(214,76)	(110,24)	(5,39)	(213,94)	(-138,61)	(-139,67)	(128,1)	(0,15)	(6,23)	(111,30)	(-5,5)	(-140,5)	(243,7)	(222,3)	(-142,5)	
L1D -212>	(213,109)	(212,107)	(-115,18)	(110,46)	(5,41)	(-140,116)	(0,20)	(1,15)	(116,16)	(-139,98)	(10,1)	(-137,22)	(-141,13)	(6,28)	(111,38)	(-144,10)	
L1D -211>	(211,68)	(212,41)	(-5,7)	(5,9)	(0,12)	(-141,37)	(95,1)	(110,23)	(126,11)	(-10,11)	(-140,26)	(111,27)	(116,30)	(115,4)	(-142,4)	(-145,4)	
L1D -210>	(210,104)	(211,89)	(110,12)	(111,32)	(0,12)	(-10,29)	(-146,15)	(261,3)	(-142,73)	(-11,23)	(-110,2)	(-143,7)	(-141,69)	(1,7)	(-5,10)	(279,2)	
L1D -209>	(209,115)	(105,1)	(210,96)	(-144,7)	(-10,10)	(0,21)	(6,22)	(-11,48)	(110,55)	(111,68)	(-143,83)	(131,5)	(-147,13)	(116,27)	(5,9)	(-142,79)	
L1D -208>	(209,83)	(116,7)	(-144,55)	(123,1)	(208,72)	(0,9)	(110,46)	(5,25)	(-143,55)	(1,3)	(-10,24)	(-119,4)	(-147,6)	(111,61)	(6,20)	(105,9)	
L1D -207>	(110,55)	(-10,33)	(207,88)	(5,44)	(0,17)	(-5,11)	(-144,114)	(111,58)	(-145,51)	(126,8)	(-4,1)	(137,5)	(208,103)	(122,10)	(139,8)	(-11,6)	
L1D -206>	(206,92)	(0,22)	(-146,67)	(-10,23)	(111,36)	(-150,7)	(-145,98)	(-170,1)	(-11,11)	(110,27)	(125,11)	(-143,18)	(-122,8)	(231,7)	(5,18)	(207,96)	
L1D -205>	(124,5)	(110,71)	(-147,51)	(116,18)	(105,9)	(206,118)	(-146,44)	(5,19)	(121,1)	(-11,18)	(-120,3)	(1,4)	(-180,4)	(-151,11)	(205,37)	(-144,10)	
L1D -204>	(-11,14)	(204,94)	(111,19)	(1,15)	(-147,61)	(-17,1)	(110,17)	(205,78)	(-149,5)	(-148,40)	(127,10)	(5,24)	(-5,24)	(138,5)	(-10,3)	(-4,9)	
L1D -203>	(204,71)	(-149,28)	(137,5)	(100,10)	(203,66)	(5,9)	(-10,24)	(272,1)	(-5,34)	(116,41)	(111,44)	(110,37)	(-148,50)	(115,13)	(159,7)	(105,23)	
L1D -202>	(10,9)	(-10,16)	(100,19)	(-150,24)	(202,41)	(-11,21)	(110,51)	(-149,44)	(105,17)	(5,1)	(126,4)	(203,50)	(136,6)	(111,27)	(104,6)	(121,16)	
L1D -201>	(-126,4)	(201,53)	(106,9)	(-151,15)	(-11,13)	(110,25)	(-10,11)	(-20,4)	(202,64)	(111,1)	(-150,30)	(0,7)	(116,49)	(117,12)	(6,19)	(-5,23)	
L1D -200>	(116,34)	(111,39)	(6,32)	(-151,33)	(200,49)	(-152,17)	(267,1)	(105,28)	(-5,8)	(0,8)	(115,9)	(132,4)	(201,39)	(-21,10)	(-10,6)	(-175,4)	
L1D -199>	(-154,4)	(200,48)	(-5,15)	(199,80)	(5,22)	(106,9)	(116,21)	(-153,13)	(-21,1)	(105,15)	(110,26)	(-10,18)	(-150,7)	(-152,31)	(-11,15)	(111,53)	
L1D -198>	(-10,8)	(198,29)	(-11,9)	(199,40)	(5,25)	(6,29)	(111,15)	(-153,19)	(-154,15)	(132,7)	(105,39)	(110,38)	(114,1)	(117,3)	(115,5)	(126,2)	
L1D -197>	(197,32)	(94,7)	(110,25)	(-11,14)	(-155,10)	(-154,5)	(105,39)	(100,7)	(136,5)	(-6,5)	(198,45)	(116,9)	(55,1)	(5,24)	(111,4)	(115,10)	
L1D -196>	(-10,16)	(-132,2)	(111,21)	(100,7)	(-156,14)	(-140,2)	(-149,2)	(115,13)	(196,10)	(-155,26)	(197,33)	(258,1)	(5,4)	(152,1)	(6,1)	(-95,1)	
L1D -195>	(11,31)	(-10,44)	(195,52)	(110,27)	(95,4)	(111,51)	(-5,3)	(-157,16)	(196,31)	(1,5)	(-156,15)	(127,2)	(-11,18)	(10,2)	(106,4)	(100,8)	
L1D -194>	(-158,10)	(105,9)	(-157,18)	(194,51)	(195,40)	(110,6)	(94,4)	(111,21)	(116,19)	(100,10)	(117,10)	(99,3)	(1,11)	(-5,15)	(5,8)	(-10,1)	
L1D -193>	(4,4)	(94,1)	(-11,5)	(110,30)	(193,35)	(1,8)	(-5,21)	(127,7)	(5,8)	(-159,10)	(194,35)	(105,9)	(-4,7)	(0,5)	(-149,4)	(111,14)	
L1D -192>	(1,26)	(4,5)	(6,13)	(192,21)	(-11,18)	(-160,10)	(193,28)	(111,24)	(105,8)	(107,7)	(99,14)	(116,11)	(-5,1)	(110,13)	(100,13)	(5,35)	
L1D -191>	(1,45)	(6,2)	(-161,12)	(192,35)	(147,5)	(0,5)	(-10,9)	(190,2)	(191,12)	(5,5)	(215,1)	(-160,17)	(-158,2)	(110,17)	(105,1)	(100,3)	
L1D -190>	(1,53)	(6,38)	(0,6)	(-6,3)	(190,34)	(-162,11)	(109,6)	(-160,1)	(115,15)	(111,6)	(191,29)	(5,6)	(-5,5)	(-161,13)	(116,2)	(-169,3)	
L1D -189>	(115,4)	(0,6)	(-163,9)	(1,53)	(89,4)	(100,4)	(-162,9)	(189,70)	(5,56)	(-11,39)	(-10,10)	(-4,9)	(283,1)	(105,12)	(190,35)	(110,27)	
L1D -188>	(1,60)	(-164,6)	(4,3)	(-10,13)	(-21,4)	(188,24)	(111,18)	(110,46)	(0,9)	(189,25)	(-163,9)	(5,38)	(105,7)	(116,6)	(11,8)	(89,3)	
L1D -187>	(95,6)	(1,49)	(187,30)	(110,29)	(188,27)	(138,1)	(-166,4)	(100,15)	(111,73)	(-11,25)	(126,23)	(-10,46)	(106,8)	(-5,11)	(105,6)	(11,29)	
L1D -186>	(1,51)	(142,6)	(4,5)	(-166,15)	(187,22)	(115,6)	(170,1)	(-141,3)	(111,5)	(-165,4)	(94,2)	(186,5)	(11,12)	(110,8)	(281,3)	(3,3)	
L1D -185>	(1,60)	(185,25)	(6,13)	(141,5)	(-167,6)	(0,12)	(186,20)	(7,1)	(116,3)	(111,16)	(-10,11)	(-148,2)	(-5,7)	(196,2)	(-122,3)	(-166,4)	
L1D -184>	(5,92)	(1,51)	(184,61)	(-11,48)	(185,21)	(100,23)	(4,4)	(110,61)	(103,3)	(-167,8)	(11,8)	(134,3)	(89,12)	(0,6)	(105,3)	(278,1)	
L1D -183>	(11,20)	(1,45)	(4,4)	(-10,17)	(0,11)	(-11,14)	(-21,6)	(183,17)	(127,7)	(84,1)	(5,24)	(-169,6)	(172,12)	(110,45)	(115,4)	(111,36)	
L1D -182>	(288,4)	(1,46)	(4,6)	(-145,3)	(-11,8)	(182,5)	(11,18)	(10,1)	(125,4)	(138,3)	(-5,4)	(-169,7)	(111,7)	(5,3)	(-281,11)	(183,11)	
L1D -181>	(100,4)	(111,12)	(181,14)	(1,53)	(0,9)	(5,48)	(-171,5)	(110,6)	(6,5)	(11,20)	(-170,1)	(116,5)	(182,9)	(120,4)	(-10,5)	(99,2)	
L1D -180>	(111,12)	(110,13)	(105,5)	(-10,6)	(270,1)	(-171,7)	(11,16)	(1,49)	(122,2)	(286,2)	(6,15)	(274,4)	(285,4)	(-21,2)	(5,14)	(180,7)	
L1D -179>	(104,12)	(100,4)	(-278,35)	(5,9)	(0,12)	(179,41)	(-279,42)	(6,5)	(66,1)	(11,18)	(-6,11)	(-10,37)	(105,27)	(110,26)	(111,38)	(1,47)	
L1D -178>	(11,13)	(1,56)	(-10,13)	(178,15)	(-289,51)	(-288,42)	(-6,3)	(10,8)	(177,7)	(273,1)	(0,25)	(122,3)	(117,5)	(-11,2)	(-166,2)	(111,11)	
L1D -177>	(-175,11)	(177,23)	(1,47)	(182,5)	(-10,5)	(10,18)	(11,14)	(0,29)	(282,4)	(22,3)	(-287,9)	(172,4)	(176,11)	(-11,4)	(287,1)	(178,12)	
L1D -176>	(176,46)	(-10,20)	(1,55)	(115,37)	(-287,60)	(-286,68)	(175,10)	(116,1)	(-11,24)	(10,14)	(100,5)	(0,23)	(11,31)	(6,17)	(111,8)	(5,16)	
L1D -175>	(1,67)	(-286,56)	(-285,75)	(175,44)	(176,13)	(-177,5)	(16,1)	(11,26)	(174,7)	(10,19)	(6,11)	(5,11)	(0,27)	(100,2)	(111,14)	(-21,3)	
L1D -174>	(93,7)	(110,7)	(-284,69)	(0,30)	(-285,42)	(5,14)	(124,4)	(174,15)	(105,5)	(11,10)	(-1,3)	(1,57)	(-10,7)	(235,1)	(-5,8)	(6,15)	
L1D -173>	(10,13)	(1,57)	(173,15)	(-283,48)	(11,22)	(172,20)	(-110,1)	(5,9)	(-284,38)	(0,35)	(-178,3)	(278,8)	(-5,9)	(-11,4)	(289,3)	(-10,4)	
L1D -172>	(172,29)	(177,4)	(-283,12)	(100,4)	(10,20)	(11,24)	(171,1)	(282,5)	(105,8)	(196,2)	(1,48)	(4,5)	(-11,4)	(201,7)	(288,2)	(0,30)	
L1D -171>	(1,61)	(171,28)	(-11,5)	(10,16)	(170,9)	(172,16)	(-10,15)	(3,6)	(111,6)	(110,17)	(-281,119)	(0,33)	(11,35)	(-282,1)	(-280,5)	(282,8)	
L1D -170>	(-281,76)	(126,5)	(128,1)	(-10,18)	(-147,3)	(1,64)	(-280,22)	(111,39)	(110,33)	(11,28)	(0,16)	(170,27)	(12,3)	(5,7)	(10,8)	(171,14)	
L1D -169>	(116,25)	(-279,80)	(-280,72)	(169,22)	(5,5)	(168,12)	(0,46)	(1,50)	(-153,1)	(6,19)	(11,18)	(10,19)	(280,7)	(110,16)	(-10,13)	(259,3)	
L1D -168>	(267,1)	(-279,78)	(11,17)	(-21,9)	(10,23)	(1,61)	(168,34)	(3,5)	(0,28)	(-11,33)	(5,34)	(173,3)	(117,4)	(93,2)	(-278,9)	(263,2)	
L1D -167>	(-300,12)	(11,15)	(1,70)	(-299,6)	(10,14)	(190,1)	(-278,8)	(105,6)	(95,5)	(110,25)	(5,9)	(86,5)	(0,20)	(-172,2)	(-11,17)	(122,4)	
L1D -166>	(166,21)	(1,75)	(172,1)	(-276,32)	(-186,2)	(277,9)	(-10,4)	(10,13)	(271,2)	(171,6)	(0,34)	(4,4)	(11,65)	(-11,5)	(276,6)	(-297,4)	
L1D -165>	(165,23)	(-276,85)	(111,5)	(209,8)	(1,63)	(0,26)	(105,4)	(281,5)	(5,14)	(20,1)	(160,3)	(-297,12)	(276,2)	(-11,3)	(11,44)	(10,11)	
L1D -164>	(3,15)	(-274,54)	(-275,24)	(1,58)	(164,29)	(0,19)	(259,9)	(163,4)	(11,27)	(-11,12)	(6,8)	(31,1)	(116,6)	(-20,2)	(10,7)	(-296,3)	
L1D -163>	(1,63)	(163,14)	(-11,6)	(162,11)	(121,7)	(-274,51)	(-273,25)	(11,15)	(5,1)	(389,3)	(0,38)	(110,35)	(-10,3)	(4,8)	(-295,16)	(10,19)	
L1D -162>	(162,28)	(0,39)	(-149,3)	(272,3)	(-11,15)	(3,8)	(-189,2)	(163,9)	(10,14)	(1,64)	(267,4)	(4,7)	(277,1)	(-103,1)	(161,7)	(11,24)	
L1D -161>	(161,29)	(-271,29)	(-272,9)	(10,10)	(1,67)	(3,14)	(-10,1)	(11,26)	(4,3)	(160,8)	(162,14)	(-11,7)	(0,46)	(-147,3)	(-5,6)	(5,4)	
L1D -160>	(160,24)	(110,38)	(4,1)	(-271,113)	(1,81)	(111,15)	(-270,97)	(161,11)	(3,11)	(0,51)	(11,19)	(10,15)	(109,4)	(-5,10)	(5,29)	(2,7)	
L1D -159>	(3,13)	(10,15)	(-270,32)	(-269,81)	(-5,10)	(11,22)	(1,74)	(0,47)	(110,23)	(159,34)	(5,13)	(-11,12)	(111,9)	(6,6)	(158,10)	(-16,1)	
L1D -158>	(1,71)	(158,16)	(3,14)	(-1,5)	(10,19)	(-269,46)	(0,35)	(11,25)	(-268,35)	(-11,14)	(-290,21)	(5,15)	(164,1)	(110,5)	(215,4)	(6,11)	
L1D -157>	(157,10)	(11,16)	(1,72)	(0,49)	(10,8)	(-5,13)	(4,4)	(110,4)	(-10,5)	(3,11)	(111,5)	(-268,16)	(5,16)	(287,1)	(156,13)	(262,3)	
L1D -156>	(1,78)	(111,5)	(-267,17)	(-266,98)	(11,13)	(90,4)	(6,18)	(-11,7)	(10,17)	(0,57)	(156,27)	(5,12)	(3,19)	(282,1)	(22,10)	(-21,3)	
L1D -155>	(155,19)	(0,42)	(10,13)	(-266,73)	(-265,113)	(1,42)	(116,13)	(3,14)	(105,1)	(11,22)	(5,8)	(-11,8)	(110,11)	(150,6)	(-286,3)	(-10,5)	
L1D -154>	(116,10)	(150,11)	(154,24)	(-264,25)	(-265,107)	(0,45)	(1,79)	(-6,17)	(3,24)	(110,21)	(-145,4)	(220,9)	(10,10)	(-11,1)	(-5,10)	(111,6)	
L1D -153>	(153,21)	(0,41)	(96,4)	(-4,1)	(1,77)	(-6,10)	(-264,104)	(-263,81)	(10,18)	(111,6)	(100,3)	(-284,22)	(3,29)	(89,4)	(105,19)	(6,16)	
L1D -152>	(151,7)	(152,32)	(6,16)	(3,37)	(5,20)	(121,8)	(263,1)	(127,4)	(1,75)	(-262,86)	(-11,9)	(11,21)	(0,64)	(4,4)	(-16,4)	(-21,2)	
L1D -151>	(151,31)	(3,34)	(1,92)	(0,55)	(-261,41)	(-262,42)	(2,12)	(5,7)	(4,5)	(11,21)	(-282,14)	(150,10)	(111,15)	(146,28)	(110,17)	(-64,1)	
L1D -150>	(150,25)	(4,6)	(-1,1)	(-261,94)	(-260,87)	(0,45)	(1,87)	(-281,8)	(10,13)	(11,42)	(-282,19)	(-11,18)	(-5,11)	(110,12)	(3,38)	(-10,10)	
L1D -149>	(217,7)	(0,82)	(3,63)	(-260,127)	(-6,9)	(111,5)	(-259,43)	(11,42)	(249,5)	(1,120)	(6,24)	(5,24)	(149,38)	(-5,10)	(2,7)	(110,2)	
L1D -148>	(-280,13)	(1,75)	(148,22)	(5,11)	(-11,7)	(-258,29)	(6,7)	(0,39)	(-6,4)	(4,8)	(216,3)	(3,27)	(11,20)	(-259,8)	(-279,6)	(-1,1)	
L1D -147>	(147,20)	(1,74)	(3,40)	(-280,11)	(-258,36)	(111,1)	(-257,48)	(5,9)	(191,3)	(-11,9)	(0,41)	(11,8)	(217,4)	(2,15)	(-267,4)	(10,10)	
L1D -146>	(146,17)	(122,3)	(-278,11)	(0,44)	(1,85)	(-256,24)	(11,14)	(-257,44)	(110,27)	(2,9)	(-5,6)	(10,8)	(-11,1)	(5,12)	(3,32)	(4,6)	
L1D -145>	(145,28)	(0,118)	(3,42)	(-256,75)	(10,16)	(1,127)	(116,1)	(-277,21)	(111,31)	(2,15)	(351,19)	(110,10)	(-11,14)	(-1,13)	(144,9)	(11,41)	
L1D -144>	(5,19)	(110,23)	(1,109)	(-255,56)	(-254,110)	(144,27)	(171,3)	(10,10)	(3,14)	(-277,3)	(352,1)	(111,12)	(0,78)	(11,21)	(2,13)	(-5,13)	
L1D -143>	(11,34)	(111,10)	(209,6)	(1,105)	(-254,31)	(6,8)	(143,20)	(4,4)	(351,7)	(3,9)	(10,7)	(0,46)	(5,13)	(-105,1)	(116,15)	(-11,5)	
L1D -142>	(99,1)	(11,14)	(0,73)	(1,114)	(142,27)	(-253,57)	(-252,31)	(110,37)	(-274,11)	(6,13)	(2,14)	(5,30)	(-5,23)	(351,22)	(-6,11)	(220,8)	
L1D -141>	(141,19)	(-2,1)	(-273,8)	(116,3)	(-11,13)	(-251,36)	(11,23)	(5,13)	(-252,67)	(1,122)	(3,12)	(0,74)	(432,3)	(-1,10)	(140,7)	(2,21)	
L1D -140>	(140,20)	(352,3)	(1,112)	(-161,1)	(-272,17)	(-11,12)	(11,17)	(0,80)	(6,3)	(-251,18)	(111,5)	(-5,15)	(245,3)	(256,3)	(-1,7)	(-273,9)	
L1D -139>	(139,11)	(0,68)	(2,10)	(351,3)	(-11,14)	(-249,55)	(-271,5)	(3,8)	(-270,3)	(110,7)	(1,72)	(140,6)	(-5,12)	(11,14)	(116,6)	(-30,1)	
L1D -138>	(1,101)	(-249,57)	(5,8)	(351,20)	(116,15)	(10,12)	(138,34)	(0,74)	(-248,23)	(2,27)	(11,50)	(-270,9)	(111,30)	(243,8)	(353,7)	(100,1)	
L1D -137>	(137,28)	(0,60)	(11,16)	(-269,29)	(1,68)	(203,8)	(-5,15)	(110,10)	(2,1)	(-247,29)	(-10,14)	(353,4)	(5,18)	(6,18)	(111,18)	(207,5)	
L1D -136>	(11,30)	(0,112)	(217,16)	(135,17)	(6,15)	(1,108)	(5,11)	(111,16)	(136,58)	(-246,67)	(112,10)	(71,1)	(-247,98)	(104,10)	(110,23)	(10,21)	
L1D -135>	(135,13)	(351,10)	(105,4)	(5,6)	(0,67)	(1,82)	(353,8)	(251,2)	(-246,25)	(-245,16)	(112,2)	(11,10)	(2,9)	(-1,11)	(216,6)	(-5,4)	
L1D -134>	(134,20)	(-11,10)	(135,10)	(352,10)	(353,4)	(0,111)	(111,19)	(351,30)	(-6,13)	(383,4)	(-244,21)	(-153,1)	(11,12)	(1,90)	(5,10)	(10,9)	
L1D -133>	(111,9)	(133,54)	(0,107)	(1,105)	(10,13)	(-244,69)	(-10,6)	(-243,18)	(2,17)	(-11,22)	(218,3)	(-1,8)	(-5,20)	(110,19)	(11,20)	(353,6)	
L1D -132>	(217,23)	(110,25)	(-243,15)	(11,8)	(6,26)	(109,12)	(0,96)	(10,1)	(5,30)	(132,34)	(-5,14)	(216,9)	(1,35)	(-11,13)	(-263,16)	(198,7)	
L1D -131>	(109,1)	(1,31)	(-263,18)	(5,56)	(-230,11)	(-241,113)	(105,18)	(-242,36)	(131,49)	(0,116)	(110,37)	(6,19)	(192,6)	(175,4)	(111,33)	(216,44)	
L1D -130>	(130,31)	(0,23)	(11,17)	(6,3)	(107,1)	(-240,51)	(211,2)	(-10,3)	(-241,67)	(116,9)	(119,1)	(125,1)	(110,3)	(106,5)	(10,7)	(1,15)	
L1D -129>	(129,20)	(69,1)	(106,13)	(105,6)	(-240,89)	(1,33)	(-239,58)	(6,11)	(128,13)	(-10,8)	(-11,11)	(-262,8)	(0,53)	(11,41)	(10,12)	(-5,16)	
L1D -128>	(121,3)	(244,12)	(11,25)	(0,85)	(111,1)	(128,58)	(106,24)	(104,6)	(-239,115)	(5,35)	(-11,21)	(110,14)	(6,18)	(-238,72)	(10,11)	(1,15)	
L1D -127>	(111,85)	(-11,32)	(116,28)	(-238,46)	(127,77)	(-237,70)	(1,32)	(216,10)	(6,58)	(-283,1)	(100,11)	(110,36)	(-5,28)	(-10,24)	(0,59)	(5,35)	
L1D -126>	(-236,71)	(126,89)	(114,2)	(218,23)	(110,113)	(111,55)	(5,86)	(-260,13)	(192,5)	(6,37)	(105,42)	(-257,18)	(-11,25)	(-10,41)	(77,5)	(0,66)	
L1D -125>	(1,15)	(10,6)	(0,32)	(5,19)	(-236,60)	(-256,7)	(125,19)	(-235,72)	(-5,8)	(-21,3)	(-257,14)	(-11,13)	(3,4)	(102,1)	(111,7)	(236,2)	
L1D -124>	(124,30)	(5,20)	(110,11)	(-257,20)	(1,47)	(-235,95)	(-5,11)	(100,8)	(-234,87)	(0,53)	(10,15)	(130,8)	(-136,1)	(109,4)	(11,39)	(-10,11)	
L1D -123>	(42,5)	(1,13)	(116,7)	(123,22)	(111,39)	(100,10)	(0,41)	(10,14)	(-234,83)	(-233,79)	(122,1)	(110,16)	(-255,8)	(-10,10)	(-11,13)	(-5,12)	
L1D -122>	(-263,1)	(122,100)	(111,102)	(-261,24)	(-256,15)	(0,54)	(1,32)	(199,11)	(110,32)	(-259,10)	(211,9)	(6,67)	(-274,7)	(-264,16)	(-233,60)	(220,15)	
L1D -121>	(-266,5)	(105,37)	(0,41)	(5,88)	(6,70)	(111,76)	(121,60)	(-232,32)	(-270,7)	(219,27)	(11,13)	(216,16)	(-6,1)	(-260,3)	(110,103)	(-5,20)	
L1D -120>	(120,47)	(110,47)	(0,99)	(1,9)	(10,13)	(116,126)	(-253,7)	(-6,10)	(105,15)	(5,41)	(190,4)	(-230,56)	(-231,36)	(111,19)	(-280,1)	(-5,16)	
L1D -119>	(115,89)	(119,33)	(0,76)	(-5,10)	(-230,61)	(-229,63)	(10,5)	(5,34)	(110,14)	(-11,3)	(1,12)	(-16,5)	(-142,1)	(-15,2)	(-252,4)	(111,14)	
L1D -118>	(-250,9)	(118,25)	(0,60)	(-16,11)	(5,18)	(-11,5)	(-229,50)	(-228,51)	(114,90)	(11,8)	(110,11)	(116,6)	(-5,7)	(-251,5)	(10,8)	(115,1)	
L1D -117>	(117,56)	(-10,20)	(-228,47)	(113,117)	(0,69)	(6,26)	(-153,1)	(-250,8)	(212,2)	(111,42)	(5,25)	(-251,15)	(-277,4)	(-11,16)	(-227,23)	(-5,15)	
L1D -116>	(0,35)	(105,61)	(116,76)	(111,95)	(6,72)	(211,11)	(-234,7)	(-273,1)	(5,124)	(110,59)	(120,25)	(-249,28)	(-276,7)	(201,8)	(1,7)	(112,31)	
L1D -115>	(115,70)	(0,107)	(10,43)	(11,37)	(104,11)	(-287,24)	(5,76)	(1,4)	(-111,1)	(-11,11)	(-247,20)	(111,70)	(-6,30)	(110,74)	(116,24)	(-1,7)	
L1D -114>	(110,80)	(106,5)	(1,10)	(114,29)	(0,47)	(-111,3)	(91,1)	(-245,7)	(-246,25)	(-225,34)	(-224,32)	(118,24)	(-6,17)	(-247,11)	(10,6)	(103,36)	
L1D -113>	(113,39)	(0,98)	(114,4)	(-224,35)	(117,53)	(-10,9)	(102,40)	(-222,21)	(-223,54)	(109,121)	(90,10)	(-246,21)	(-5,14)	(287,1)	(105,17)	(327,4)	
L1D -112>	(116,31)	(-10,24)	(112,126)	(108,100)	(1,37)	(0,93)	(-11,29)	(148,1)	(-245,20)	(-244,48)	(-246,29)	(131,13)	(-223,44)	(101,55)	(-222,57)	(105,19)	
L1D -111>	(5,33)	(1,13)	(111,75)	(0,27)	(-110,27)	(-6,8)	(-233,11)	(127,2)	(-244,10)	(-270,9)	(6,70)	(116,53)	(-5,69)	(-243,13)	(107,15)	(110,18)	
L1D -110>	(-116,1)	(110,116)	(0,40)	(-269,8)	(-228,4)	(227,5)	(121,22)	(5,95)	(-5,32)	(100,12)	(-6,70)	(-230,5)	(116,50)	(105,50)	(111,30)	(-281,6)	
L1D -109>	(0,108)	(109,80)	(-5,10)	(128,14)	(110,18)	(100,15)	(116,12)	(105,125)	(5,64)	(98,51)	(10,7)	(6,39)	(113,41)	(-271,9)	(-11,1)	(1,12)	
L1D -108>	(97,14)	(6,22)	(0,60)	(105,14)	(112,17)	(-5,2)	(109,18)	(108,31)	(1,8)	(5,11)	(104,76)	(111,9)	(85,3)	(86,1)	(101,7)	(-11,12)	
L1D -107>	(111,25)	(107,103)	(-259,4)	(6,31)	(-151,1)	(108,33)	(104,17)	(96,27)	(0,64)	(110,5)	(-262,6)	(116,5)	(105,45)	(5,36)	(103,77)	(-240,11)	
L1D -106>	(210,2)	(0,14)	(106,25)	(110,26)	(-280,5)	(127,2)	(102,24)	(130,14)	(6,19)	(111,97)	(104,6)	(116,13)	(-10,54)	(201,7)	(105,11)	(-253,2)	
L1D -105>	(105,72)	(179,19)	(-11,43)	(203,19)	(116,43)	(128,8)	(0,25)	(209,1)	(115,29)	(154,4)	(155,9)	(111,57)	(101,26)	(106,19)	(110,122)	(169,3)	
L1D -104>	(100,44)	(0,22)	(104,93)	(93,25)	(105,45)	(111,14)	(-111,8)	(110,27)	(108,15)	(-106,9)	(116,2)	(6,6)	(5,16)	(103,20)	(-239,4)	(119,5)	
L1D -103>	(103,83)	(104,57)	(-116,19)	(5,28)	(113,11)	(-105,40)	(-111,10)	(0,58)	(99,90)	(100,1)	(92,11)	(102,37)	(-11,7)	(-106,13)	(101,6)	(6,32)	
L1D -102>	(102,73)	(106,12)	(103,20)	(0,21)	(10,4)	(-29,1)	(-116,13)	(32,2)	(6,18)	(-105,15)	(98,16)	(111,2)	(101,9)	(100,9)	(5,27)	(91,23)	
L1D -101>	(0,7)	(110,3)	(101,71)	(111,25)	(5,20)	(90,13)	(102,21)	(105,8)	(6,12)	(99,5)	(-243,5)	(11,3)	(106,2)	(100,17)	(107,1)	(97,4)	
L1D -100>	(0,20)	(100,73)	(110,46)	(-11,19)	(115,10)	(-6,7)	(101,11)	(6,2)	(105,10)	(5,28)	(116,14)	(99,14)	(111,61)	(-5,10)	(192,5)	(127,10)	
L1D -99>	(99,109)	(-121,15)	(100,30)	(95,82)	(-5,9)	(0,46)	(103,14)	(105,15)	(110,38)	(194,7)	(98,40)	(-10,7)	(-253,1)	(-116,16)	(5,41)	(116,16)	
L1D -98>	(94,53)	(0,32)	(98,88)	(108,9)	(99,17)	(-110,20)	(-121,1)	(5,19)	(-111,17)	(-116,25)	(87,7)	(6,8)	(95,9)	(97,33)	(-6,11)	(17,2)	
L1D -97>	(103,4)	(0,44)	(-111,3)	(93,97)	(92,2)	(-110,10)	(1,2)	(98,53)	(97,102)	(-6,8)	(-255,28)	(5,4)	(95,6)	(112,2)	(96,26)	(116,9)	
L1D -96>	(96,111)	(85,39)	(-5,1)	(97,56)	(111,12)	(91,25)	(1,5)	(-256,29)	(92,21)	(-251,9)	(0,31)	(106,11)	(-110,7)	(-121,30)	(11,8)	(-116,20)	
L1D -95>	(95,70)	(0,24)	(94,8)	(-116,23)	(84,8)	(96,11)	(-121,31)	(-293,15)	(-254,6)	(111,13)	(-237,10)	(194,1)	(110,14)	(99,10)	(-10,11)	(116,7)	
L1D -94>	(-110,9)	(0,42)	(95,19)	(-116,7)	(94,107)	(111,22)	(98,20)	(93,33)	(110,24)	(-121,1)	(-6,21)	(5,25)	(-258,14)	(90,61)	(6,19)	(83,23)	
L1D -93>	(93,89)	(-259,25)	(0,40)	(-116,19)	(5,34)	(89,80)	(-121,15)	(-111,6)	(-156,1)	(94,7)	(6,23)	(82,33)	(-6,7)	(92,29)	(-106,5)	(97,19)	
L1D -92>	(-126,5)	(0,71)	(92,124)	(110,1)	(-110,19)	(-121,20)	(-115,5)	(-120,3)	(91,44)	(90,21)	(88,80)	(11,17)	(6,13)	(5,19)	(115,5)	(98,4)	
L1D -91>	(91,103)	(95,25)	(89,23)	(0,58)	(80,31)	(10,25)	(-116,25)	(87,108)	(-10,1)	(-297,4)	(92,15)	(68,11)	(5,12)	(90,15)	(114,9)	(-261,16)	
L1D -90>	(0,56)	(-270,5)	(90,124)	(86,64)	(105,5)	(111,15)	(94,14)	(-249,8)	(-6,13)	(-5,17)	(5,7)	(89,21)	(116,11)	(88,20)	(122,2)	(79,23)	
L1D -89>	(-248,5)	(0,31)	(89,74)	(93,11)	(113,6)	(85,6)	(110,22)	(90,20)	(88,14)	(95,5)	(5,11)	(170,1)	(78,24)	(-121,7)	(111,15)	(138,3)	
L1D -88>	(88,119)	(89,58)	(0,59)	(-116,17)	(-121,26)	(111,8)	(-10,16)	(-242,9)	(98,10)	(-264,21)	(84,81)	(109,1)	(92,17)	(77,14)	(83,13)	(-110,14)	
L1D -87>	(111,4)	(87,42)	(0,55)	(-111,5)	(-11,11)	(-121,18)	(-116,13)	(76,15)	(83,74)	(6,9)	(-5,16)	(102,6)	(1,4)	(85,7)	(-265,12)	(65,1)	
L1D -86>	(-1,4)	(86,71)	(90,18)	(75,36)	(83,19)	(84,17)	(85,18)	(82,91)	(87,22)	(-16,1)	(-266,6)	(0,48)	(6,8)	(63,8)	(-11,3)	(111,6)	
L1D -85>	(0,44)	(5,17)	(85,72)	(84,18)	(-121,46)	(81,37)	(89,7)	(111,9)	(-10,14)	(-110,8)	(-132,8)	(-243,1)	(100,4)	(86,15)	(83,13)	(-116,3)	
L1D -84>	(84,70)	(-111,13)	(73,13)	(-69,11)	(0,40)	(-132,1)	(-297,4)	(80,57)	(83,32)	(94,2)	(-116,6)	(5,23)	(85,8)	(82,9)	(6,13)	(-127,7)	
L1D -83>	(72,39)	(-10,4)	(79,78)	(83,107)	(-244,6)	(0,55)	(84,21)	(78,25)	(82,20)	(6,28)	(89,5)	(87,39)	(81,4)	(90,1)	(5,28)	(-5,13)	
L1D -82>	(86,10)	(80,22)	(82,69)	(83,42)	(5,21)	(-117,1)	(-270,29)	(0,47)	(78,97)	(6,31)	(79,16)	(81,11)	(77,11)	(-246,8)	(121,4)	(71,10)	
L1D -81>	(0,50)	(-90,1)	(85,20)	(70,60)	(81,66)	(6,5)	(79,16)	(80,26)	(78,21)	(77,87)	(-5,12)	(82,37)	(5,5)	(58,14)	(-126,22)	(-131,8)	
L1D -80>	(0,95)	(-10,5)	(84,42)	(80,112)	(90,21)	(77,11)	(69,18)	(81,52)	(79,36)	(5,5)	(-6,1)	(6,10)	(-272,9)	(-5,9)	(57,16)	(76,103)	
L1D -79>	(79,95)	(80,15)	(0,46)	(-71,2)	(77,6)	(94,4)	(-5,11)	(160,3)	(68,22)	(5,11)	(6,25)	(-273,8)	(76,4)	(83,9)	(78,19)	(75,62)	
L1D -78>	(79,34)	(67,33)	(75,17)	(78,106)	(0,84)	(-121,30)	(83,10)	(74,115)	(287,1)	(5,36)	(-274,30)	(-6,14)	(-21,3)	(77,24)	(-116,24)	(-5,18)	
L1D -77>	(-5,31)	(74,1)	(77,93)	(0,82)	(-110,10)	(73,74)	(75,33)	(78,29)	(-122,11)	(66,21)	(-121,19)	(5,39)	(-116,21)	(30,3)	(6,20)	(76,17)	
L1D -76>	(0,45)	(76,27)	(1,4)	(-116,13)	(5,3)	(75,16)	(-121,9)	(72,71)	(-122,2)	(80,13)	(123,1)	(83,1)	(-73,7)	(-68,2)	(65,16)	(53,4)	
L1D -75>	(0,47)	(-11,2)	(90,5)	(79,20)	(76,14)	(6,19)	(75,56)	(72,14)	(71,65)	(73,7)	(64,8)	(5,2)	(74,16)	(-115,4)	(-5,3)	(-277,8)	
L1D -74>	(0,39)	(-119,1)	(70,67)	(1,5)	(74,66)	(72,7)	(-278,17)	(75,6)	(84,6)	(-110,6)	(-121,6)	(5,4)	(63,19)	(78,24)	(-256,2)	(-5,7)	
L1D -73>	(17,7)	(62,66)	(73,91)	(1,8)	(5,7)	(70,20)	(-11,4)	(69,74)	(-6,15)	(72,36)	(0,65)	(74,43)	(-121,23)	(10,1)	(-115,3)	(68,9)	
L1D -72>	(76,30)	(72,77)	(87,1)	(0,61)	(-106,7)	(61,45)	(6,45)	(73,24)	(68,90)	(70,23)	(-5,10)	(-116,10)	(69,7)	(-6,8)	(71,9)	(-75,7)	
L1D -71>	(67,97)	(75,34)	(71,85)	(96,4)	(72,31)	(0,78)	(-5,16)	(70,38)	(69,24)	(-75,11)	(68,14)	(-281,1)	(5,13)	(6,23)	(60,32)	(-121,5)	
L1D -70>	(1,8)	(70,88)	(0,74)	(71,18)	(111,1)	(-106,15)	(5,29)	(6,24)	(10,6)	(66,89)	(-76,5)	(-6,10)	(59,27)	(69,21)	(74,18)	(105,11)	
L1D -69>	(0,28)	(-278,3)	(1,5)	(5,23)	(70,11)	(-121,6)	(-10,3)	(69,72)	(58,28)	(-283,13)	(65,45)	(6,1)	(68,13)	(-42,10)	(-251,4)	(-36,3)	
L1D -68>	(68,104)	(0,29)	(57,71)	(11,6)	(-104,1)	(64,52)	(65,12)	(-11,9)	(-10,3)	(67,25)	(72,3)	(5,25)	(69,19)	(66,18)	(-111,5)	(-281,4)	
L1D -67>	(67,78)	(0,81)	(5,17)	(11,11)	(6,22)	(1,8)	(21,1)	(56,27)	(68,32)	(63,81)	(116,7)	(82,8)	(71,37)	(20,4)	(-10,9)	(65,19)	
L1D -66>	(0,62)	(-78,24)	(64,14)	(-32,6)	(-286,1)	(55,31)	(5,43)	(-357,19)	(66,84)	(-142,7)	(65,35)	(-143,5)	(1,6)	(62,90)	(67,24)	(6,34)	
L1D -65>	(69,24)	(65,97)	(1,8)	(66,56)	(61,104)	(58,1)	(94,4)	(-106,4)	(54,29)	(64,41)	(-6,10)	(-247,6)	(63,23)	(118,4)	(-287,21)	(0,63)	
L1D -64>	(65,31)	(0,55)	(63,17)	(-115,5)	(60,44)	(-385,3)	(70,5)	(64,71)	(61,11)	(6,5)	(53,4)	(-383,4)	(38,1)	(-105,7)	(74,8)	(-121,8)	
L1D -63>	(0,66)	(59,78)	(60,14)	(63,116)	(1,6)	(93,1)	(64,60)	(-121,7)	(61,17)	(-105,10)	(113,5)	(58,12)	(6,27)	(-21,11)	(56,5)	(5,15)	
L1D -62>	(63,29)	(51,48)	(59,13)	(0,38)	(58,45)	(-116,6)	(62,101)	(11,8)	(-394,1)	(57,5)	(5,4)	(66,6)	(110,9)	(61,52)	(77,11)	(1,11)	
L1D -61>	(91,1)	(11,4)	(61,39)	(60,14)	(0,30)	(57,69)	(59,8)	(-126,2)	(62,9)	(6,10)	(-370,2)	(71,2)	(-120,2)	(76,5)	(5,15)	(-380,7)	
L1D -60>	(0,78)	(64,30)	(60,98)	(5,28)	(56,122)	(59,37)	(79,13)	(-116,2)	(-212,3)	(49,33)	(107,4)	(66,7)	(61,23)	(-121,8)	(75,6)	(1,7)	
L1D -59>	(55,80)	(59,58)	(0,62)	(10,6)	(5,20)	(60,17)	(69,10)	(-21,3)	(-391,3)	(-293,12)	(-116,22)	(-121,11)	(1,1)	(-5,4)	(-390,9)	(58,22)	
L1D -58>	(58,89)	(0,72)	(-11,12)	(28,4)	(59,45)	(54,85)	(61,5)	(-379,11)	(-82,1)	(47,21)	(56,13)	(-116,10)	(57,20)	(5,7)	(-378,4)	(6,30)	
L1D -57>	(53,90)	(0,46)	(56,19)	(57,45)	(-388,10)	(-295,1)	(61,18)	(46,14)	(152,2)	(6,10)	(265,3)	(58,20)	(-5,4)	(-121,5)	(-82,5)	(55,9)	
L1D -56>	(56,52)	(0,56)	(5,11)	(57,23)	(60,29)	(52,89)	(11,1)	(330,3)	(45,8)	(55,14)	(-10,1)	(27,2)	(-6,4)	(-132,1)	(-5,4)	(-215,1)	
L1D -55>	(59,24)	(55,54)	(56,20)	(51,73)	(0,35)	(5,12)	(330,5)	(6,10)	(-5,7)	(54,25)	(44,28)	(-121,6)	(-297,13)	(-11,1)	(-386,5)	(70,2)	
L1D -54>	(54,46)	(0,44)	(5,19)	(43,10)	(6,10)	(-198,1)	(-121,9)	(55,10)	(-115,3)	(31,3)	(50,71)	(58,13)	(53,9)	(60,5)	(16,2)	(51,4)	
L1D -53>	(0,51)	(42,21)	(53,50)	(51,21)	(54,20)	(10,1)	(49,66)	(6,6)	(57,29)	(-299,13)	(72,2)	(-362,2)	(-121,14)	(-5,5)	(46,2)	(-105,2)	
L1D -52>	(50,7)	(116,1)	(53,13)	(-300,4)	(52,56)	(49,10)	(6,21)	(56,32)	(51,31)	(-5,5)	(-277,2)	(48,95)	(0,58)	(41,30)	(71,7)	(-383,9)	
L1D -51>	(47,117)	(0,114)	(5,31)	(255,1)	(49,23)	(10,7)	(6,37)	(52,13)	(99,6)	(51,90)	(40,36)	(50,48)	(1,9)	(-111,5)	(55,27)	(-393,7)	
L1D -50>	(49,25)	(0,49)	(1,11)	(50,77)	(51,18)	(46,61)	(-111,3)	(5,23)	(60,20)	(-21,1)	(69,2)	(48,2)	(-110,7)	(-20,2)	(-5,6)	(-302,19)	
L1D -49>	(49,59)	(50,51)	(-116,12)	(0,64)	(45,70)	(44,15)	(-10,1)	(11,2)	(10,6)	(-67,3)	(38,14)	(46,4)	(1,4)	(53,33)	(-5,5)	(6,14)	
L1D -48>	(47,24)	(-304,22)	(0,69)	(-251,5)	(49,42)	(46,22)	(6,8)	(48,92)	(5,9)	(58,1)	(52,35)	(-5,7)	(45,7)	(37,23)	(-100,2)	(44,108)	
L1D -47>	(47,96)	(43,80)	(46,59)	(5,15)	(45,32)	(0,70)	(48,43)	(-5,15)	(17,2)	(44,26)	(36,85)	(6,46)	(116,11)	(-87,13)	(51,27)	(66,10)	
L1D -46>	(46,121)	(44,24)	(35,27)	(-101,7)	(0,59)	(56,9)	(45,36)	(6,21)	(47,22)	(50,12)	(61,12)	(42,65)	(-116,1)	(5,17)	(-399,3)	(-106,8)	
L1D -45>	(43,10)	(46,24)	(49,23)	(0,32)	(5,15)	(1,3)	(45,65)	(-5,4)	(-116,2)	(6,17)	(-307,19)	(-283,2)	(34,21)	(41,22)	(42,1)	(55,11)	
L1D -44>	(-116,13)	(-165,4)	(44,114)	(-8,13)	(43,31)	(48,73)	(0,90)	(114,4)	(42,39)	(45,78)	(-89,1)	(40,106)	(46,6)	(59,10)	(33,35)	(-137,3)	
L1D -43>	(32,2)	(49,4)	(-4,3)	(41,19)	(43,57)	(47,12)	(44,28)	(-364,4)	(42,25)	(11,4)	(-116,7)	(53,10)	(-309,16)	(39,72)	(0,61)	(5,23)	
L1D -42>	(111,5)	(42,113)	(0,105)	(99,5)	(46,23)	(-1,18)	(43,42)	(38,117)	(31,2)	(19,12)	(41,64)	(57,9)	(5,37)	(-6,12)	(6,21)	(11,16)	
L1D -41>	(-90,12)	(0,55)	(41,98)	(-311,15)	(45,5)	(51,7)	(5,13)	(42,44)	(40,29)	(17,1)	(56,6)	(-5,8)	(38,6)	(30,12)	(37,68)	(39,16)	
L1D -40>	(17,7)	(40,120)	(0,63)	(41,69)	(35,21)	(36,82)	(-6,14)	(-312,39)	(38,18)	(29,32)	(115,12)	(44,27)	(-370,23)	(-5,8)	(39,25)	(55,1)	
L1D -39>	(38,18)	(43,16)	(35,62)	(36,11)	(-110,1)	(39,73)	(49,12)	(0,50)	(40,42)	(-116,11)	(6,18)	(5,13)	(-371,4)	(-121,11)	(10,6)	(-370,8)	
L1D -38>	(113,3)	(11,5)	(-5,1)	(34,50)	(38,68)	(36,10)	(37,28)	(1,3)	(27,18)	(-116,13)	(39,15)	(-121,7)	(35,6)	(0,45)	(42,22)	(6,20)	
L1D -37>	(-315,11)	(37,101)	(36,36)	(1,4)	(-11,1)	(94,2)	(0,45)	(10,4)	(-92,14)	(34,16)	(26,13)	(6,17)	(41,12)	(33,52)	(38,21)	(111,2)	
L1D -36>	(25,15)	(32,77)	(38,29)	(36,48)	(35,22)	(111,1)	(0,47)	(34,8)	(-100,2)	(40,3)	(33,4)	(37,18)	(5,11)	(-116,6)	(-115,4)	(51,4)	
L1D -35>	(0,34)	(34,25)	(35,37)	(-5,1)	(36,16)	(32,2)	(39,10)	(-93,4)	(5,5)	(41,5)	(31,67)	(6,6)	(-317,8)	(1,3)	(33,9)	(-70,3)	
L1D -34>	(0,48)	(23,35)	(6,22)	(33,28)	(-94,1)	(-355,4)	(5,21)	(35,16)	(34,71)	(-116,18)	(-318,18)	(44,18)	(-5,4)	(30,103)	(-376,3)	(38,4)	
L1D -33>	(1,19)	(-168,1)	(33,80)	(0,53)	(34,55)	(37,19)	(22,12)	(-106,4)	(6,14)	(29,117)	(32,19)	(-319,18)	(-121,4)	(19,11)	(-116,14)	(10,6)	
L1D -32>	(1,18)	(32,116)	(6,23)	(21,67)	(28,127)	(-110,18)	(33,43)	(-132,1)	(-374,15)	(-352,24)	(51,13)	(11,53)	(36,88)	(16,11)	(0,95)	(31,24)	
L1D -31>	(35,73)	(31,90)	(-318,47)	(282,10)	(0,103)	(11,99)	(112,14)	(30,34)	(27,104)	(-24,1)	(1,34)	(20,86)	(6,17)	(-49,3)	(17,5)	(29,13)	
L1D -30>	(0,38)	(26,66)	(-169,1)	(30,29)	(31,9)	(-6,1)	(36,3)	(34,12)	(-106,3)	(19,9)	(5,3)	(29,16)	(-214,2)	(1,2)	(-322,3)	(11,3)	
L1D -29>	(27,9)	(0,54)	(-122,11)	(18,14)	(131,1)	(-1,3)	(29,54)	(-362,3)	(-116,12)	(25,88)	(-370,3)	(-361,25)	(35,4)	(28,25)	(33,19)	(-121,17)	
L1D -28>	(0,63)	(-121,9)	(1,17)	(-116,6)	(-97,1)	(5,27)	(-324,22)	(28,52)	(32,25)	(24,124)	(26,17)	(29,14)	(23,12)	(10,3)	(21,4)	(27,23)	
L1D -27>	(0,45)	(1,7)	(27,63)	(33,4)	(31,38)	(21,18)	(26,23)	(-116,12)	(24,39)	(28,1)	(23,76)	(16,12)	(-97,12)	(-359,4)	(25,8)	(22,12)	
L1D -26>	(15,30)	(26,49)	(0,32)	(21,31)	(23,5)	(30,25)	(27,12)	(-5,1)	(1,11)	(-356,2)	(22,71)	(24,51)	(-116,6)	(-121,3)	(45,5)	(6,10)	
L1D -25>	(21,91)	(23,14)	(29,14)	(26,19)	(14,20)	(20,11)	(32,1)	(1,2)	(0,36)	(25,25)	(22,8)	(44,2)	(-116,4)	(-121,2)	(5,25)	(24,25)	
L1D -24>	(0,3)	(-322,5)	(2,5)	(43,5)	(24,124)	(26,24)	(27,10)	(23,7)	(22,18)	(25,9)	(21,30)	(20,18)	(-328,1)	(1,5)	(28,4)	(4,17)	
L1D -23>	(24,72)	(0,39)	(23,111)	(1,77)	(26,7)	(10,1)	(-118,2)	(27,35)	(21,36)	(6,14)	(19,69)	(33,4)	(-99,13)	(12,13)	(22,37)	(25,4)	
L1D -22>	(1,107)	(27,13)	(21,42)	(245,12)	(282,21)	(22,99)	(26,30)	(11,66)	(20,20)	(280,5)	(232,17)	(18,1)	(236,29)	(264,19)	(24,63)	(25,4)	
L1D -21>	(-370,5)	(255,7)	(1,125)	(235,20)	(-359,1)	(22,62)	(21,37)	(238,11)	(-3,14)	(287,10)	(247,9)	(24,27)	(246,11)	(11,46)	(271,11)	(234,16)	
L1D -20>	(-106,1)	(-111,5)	(20,106)	(1,72)	(-4,85)	(26,15)	(27,5)	(-1,114)	(24,101)	(22,33)	(0,47)	(25,29)	(9,21)	(21,64)	(11,98)	(-5,53)	
L1D -19>	(1,66)	(-156,1)	(19,44)	(-101,4)	(23,26)	(-3,39)	(20,18)	(8,11)	(38,8)	(0,21)	(17,11)	(-1,14)	(-333,12)	(16,4)	(15,6)	(18,18)	
L1D -18>	(33,1)	(18,7)	(23,1)	(1,123)	(-1,5)	(4,41)	(-3,7)	(19,2)	(154,1)	(17,4)	(2,1)	(-4,1)	(-102,1)	(-127,1)	(22,3)	(0,4)	
L1D -17>	(0,89)	(16,59)	(-4,126)	(-3,57)	(-148,1)	(5,13)	(-1,121)	(6,27)	(15,28)	(18,54)	(17,91)	(27,17)	(-335,15)	(1,40)	(-369,3)	(-99,3)	
L1D -16>	(1,48)	(174,1)	(-119,1)	(16,74)	(6,4)	(0,69)	(-1,6)	(2,22)	(15,7)	(-4,16)	(14,7)	(-105,3)	(-111,3)	(11,5)	(-110,5)	(17,11)	
L1D -15>	(-110,1)	(0,101)	(1,115)	(-337,1)	(5,4)	(25,1)	(14,1)	(10,1)	(16,37)	(-65,1)	(15,2)	(121,1)	(6,1)	(110,1)	(-216,1)	(67,1)	
L1D -14>	(16,24)	(1,29)	(-44,2)	(0,14)	(14,127)	(13,7)	(-102,1)	(-87,1)	(18,1)	(-105,2)	(-64,1)	(5,2)	(-104,1)	(2,3)	(17,2)	(-82,1)	
L1D -13>	(-345,6)	(1,37)	(17,3)	(351,2)	(16,17)	(13,111)	(2,3)	(4,72)	(-104,2)	(15,18)	(12,5)	(-110,1)	(5,1)	(27,7)	(0,2)	(10,1)	
L1D -12>	(6,2)	(122,1)	(12,75)	(1,10)	(-116,1)	(15,11)	(-110,2)	(14,9)	(11,14)	(16,7)	(0,1)	(-8,3)	(-105,1)	(26,6)	(25,2)	(2,2)	
L1D -11>	(-372,1)	(1,44)	(11,121)	(233,2)	(256,3)	(0,14)	(13,12)	(25,13)	(111,15)	(235,3)	(232,5)	(2,6)	(-11,21)	(10,31)	(-10,44)	(154,2)	
L1D -10>	(110,24)	(0,11)	(2,96)	(242,8)	(375,1)	(11,127)	(-6,25)	(10,20)	(271,3)	(-5,124)	(-106,5)	(-10,54)	(1,33)	(234,4)	(235,3)	(4,58)	
L1D -9>	(1,18)	(-1,2)	(0,74)	(24,1)	(9,2)	(4,14)	(-7,1)	(10,4)	(-5,2)	(-343,2)	(265,0)	(11,6)	(15,2)	(276,0)	(261,1)	(8,1)	
L1D -8>	(384,1)	(-1,1)	(16,4)	(-8,52)	(169,1)	(-3,10)	(0,5)	(4,66)	(1,51)	(140,1)	(149,2)	(351,33)	(147,1)	(-7,1)	(8,22)	(162,3)	
L1D -7>	(4,52)	(-48,1)	(-110,2)	(3,3)	(-105,5)	(384,1)	(10,6)	(-39,1)	(-1,7)	(0,71)	(-69,1)	(-100,2)	(-111,1)	(1,48)	(16,14)	(7,1)	
L1D -6>	(4,57)	(346,33)	(-10,2)	(6,4)	(111,9)	(358,3)	(106,1)	(-267,2)	(7,1)	(9,11)	(0,23)	(1,90)	(-1,30)	(-5,2)	(-110,5)	(-166,1)	
L1D -5>	(0,18)	(-1,18)	(-8,35)	(115,2)	(344,48)	(100,3)	(-2,4)	(110,13)	(6,10)	(2,11)	(5,1)	(226,3)	(1,91)	(-6,3)	(111,3)	(-5,5)	
L1D -4>	(6,1)	(343,0)	(20,1)	(-11,1)	(-1,0)	(2,0)	(436,0)	(25,2)	(-126,0)	(1,69)	(110,0)	(24,2)	(3,2)	(21,1)	(-106,0)	(22,2)	
L1D -3>	(3,5)	(-7,44)	(0,61)	(-8,12)	(-4,5)	(21,9)	(-2,22)	(-5,30)	(367,2)	(-3,23)	(25,10)	(10,7)	(-6,6)	(24,10)	(1,96)	(4,9)	
L1D -2>	(0,42)	(-6,18)	(-4,4)	(379,1)	(-1,30)	(1,101)	(2,23)	(-5,3)	(-15,7)	(-24,15)	(-7,6)	(-3,9)	(-2,55)	(365,1)	(3,61)	(355,14)	
L1D -1>	(-135,2)	(0,79)	(1,98)	(376,1)	(-64,1)	(-5,2)	(344,1)	(-87,1)	(-20,1)	(22,1)	(-6,3)	(-21,1)	(-3,10)	(-1,20)	(2,8)	(-110,1)	
L1D 0>	(-120,1)	(-8,2)	(-6,2)	(0,69)	(1,29)	(-3,3)	(2,7)	(-7,5)	(-14,3)	(3,2)	(-1,5)	(351,1)	(110,1)	(105,1)	(10,1)	(15,7)	
L1D 1>	(357,1)	(2,6)	(342,1)	(-5,4)	(3,3)	(5,3)	(346,1)	(1,91)	(-130,1)	(15,2)	(367,1)	(347,3)	(0,8)	(-1,10)	(8,2)	(10,2)	
L1D 2>	(1,90)	(-7,7)	(0,23)	(363,1)	(-3,32)	(-6,9)	(-2,11)	(-9,20)	(2,7)	(353,9)	(340,4)	(356,1)	(367,2)	(341,7)	(357,1)	(-95,1)	
L1D 3>	(1,81)	(-99,1)	(-9,32)	(-10,29)	(340,59)	(353,13)	(-6,117)	(351,2)	(7,16)	(2,19)	(-3,25)	(-7,19)	(0,95)	(-5,25)	(-8,51)	(-13,109)	
L1D 4>	(1,117)	(-48,2)	(-105,1)	(382,1)	(0,2)	(-5,8)	(-7,36)	(-6,33)	(11,3)	(383,1)	(406,1)	(10,3)	(-25,1)	(-15,73)	(-109,1)	(-42,1)	
L1D 5>	(10,15)	(5,37)	(194,3)	(6,2)	(100,8)	(0,5)	(-116,11)	(-5,105)	(105,11)	(110,14)	(111,16)	(106,1)	(1,10)	(116,14)	(339,23)	(-6,16)	
L1D 6>	(209,3)	(53,2)	(105,15)	(0,21)	(1,29)	(-1,7)	(136,3)	(115,16)	(5,113)	(110,29)	(111,4)	(-7,11)	(-116,15)	(-111,9)	(102,2)	(-6,6)	
L1D 7>	(-56,2)	(8,8)	(1,16)	(-7,65)	(0,27)	(277,2)	(-344,1)	(-2,45)	(-4,5)	(-121,1)	(-1,43)	(-16,2)	(-9,4)	(-5,6)	(-333,1)	(-118,2)	
L1D 8>	(1,104)	(-16,21)	(-1,1)	(-168,1)	(-335,1)	(-14,0)	(8,8)	(-306,0)	(0,2)	(-25,0)	(-119,0)	(-3,0)	(-2,1)	(-8,1)	(-9,4)	(4,0)	
L1D 9>	(1,24)	(-10,13)	(-5,1)	(-9,6)	(-21,27)	(0,5)	(-16,4)	(-377,1)	(-8,28)	(-24,1)	(-2,17)	(-376,2)	(-1,73)	(-4,10)	(11,9)	(-408,1)	
L1D 10>	(242,3)	(0,6)	(276,3)	(-4,2)	(1,20)	(-2,18)	(-8,6)	(-21,41)	(-1,35)	(-377,3)	(11,9)	(-10,12)	(-380,1)	(-5,5)	(2,19)	(-11,115)	
L1D 11>	(-10,24)	(10,78)	(-396,1)	(-1,5)	(15,1)	(-369,1)	(-379,1)	(-375,1)	(0,1)	(-410,1)	(2,2)	(110,1)	(229,1)	(-21,6)	(-11,3)	(-367,1)	
L1D 12>	(10,5)	(-344,1)	(-12,49)	(-112,5)	(2,5)	(-371,2)	(-90,3)	(-11,87)	(1,4)	(3,9)	(14,8)	(5,2)	(99,2)	(-21,3)	(-1,14)	(0,31)	
L1D 13>	(-11,6)	(-361,1)	(3,4)	(-124,1)	(-3,1)	(-13,9)	(-12,88)	(0,14)	(-18,3)	(1,1)	(-7,12)	(-1,2)	(-82,1)	(2,8)	(14,3)	(261,1)	
L1D 14>	(2,7)	(-14,43)	(-13,79)	(-116,1)	(-82,1)	(0,5)	(-108,1)	(-28,1)	(-7,4)	(1,2)	(-80,1)	(-12,12)	(3,1)	(-3,1)	(-1,5)	(-8,2)	
L1D 15>	(-1,53)	(-15,3)	(-350,3)	(-14,112)	(-110,1)	(-61,1)	(-52,1)	(-7,6)	(-55,1)	(2,6)	(-108,1)	(0,2)	(-63,1)	(-28,1)	(-68,1)	(-59,1)	
L1D 16>	(-14,73)	(0,28)	(-8,13)	(-332,2)	(-127,1)	(-7,48)	(-105,1)	(-121,1)	(-15,38)	(-1,12)	(-9,6)	(-11,1)	(7,1)	(144,1)	(-164,1)	(-16,3)	
L1D 17>	(1,15)	(-4,4)	(-396,1)	(-7,26)	(-8,97)	(0,35)	(-128,3)	(4,9)	(-9,23)	(-17,32)	(-12,16)	(-11,15)	(-344,4)	(15,3)	(-127,3)	(-6,7)	
L1D 18>	(-18,71)	(-350,9)	(4,30)	(0,56)	(-129,2)	(1,29)	(-8,25)	(-11,12)	(-9,11)	(-128,10)	(-7,21)	(15,1)	(-13,35)	(-5,2)	(-1,6)	(-24,4)	
L1D 19>	(0,47)	(-18,11)	(1,27)	(-19,78)	(4,20)	(-24,9)	(-21,2)	(-25,3)	(-7,24)	(-14,14)	(221,1)	(-351,6)	(15,9)	(-11,10)	(241,1)	(11,1)	
L1D 20>	(-7,10)	(144,1)	(1,10)	(-16,27)	(15,11)	(-110,1)	(-11,6)	(4,9)	(-15,2)	(11,12)	(-352,2)	(-130,3)	(0,25)	(10,9)	(-20,114)	(-17,28)	
L1D 21>	(0,9)	(1,7)	(-20,3)	(-21,92)	(-116,7)	(-17,24)	(-18,27)	(-7,3)	(-397,2)	(222,1)	(10,2)	(-11,8)	(242,2)	(78,2)	(-132,2)	(11,8)	
L1D 22>	(-391,3)	(4,3)	(0,13)	(-17,5)	(-111,2)	(-21,2)	(-396,2)	(-430,2)	(10,9)	(-25,10)	(-22,104)	(-402,1)	(-18,23)	(-7,7)	(-20,11)	(-19,23)	
L1D 23>	(0,30)	(1,13)	(-29,8)	(-19,10)	(-355,4)	(-30,2)	(4,14)	(-7,18)	(-18,17)	(-23,81)	(-354,1)	(-135,1)	(-379,2)	(-20,9)	(-11,3)	(-128,5)	
L1D 24>	(-21,18)	(1,7)	(-13,6)	(-381,1)	(-32,1)	(-136,1)	(0,4)	(-24,105)	(-20,21)	(-360,3)	(-359,4)	(-31,1)	(-6,2)	(-135,1)	(-23,1)	(-14,3)	
L1D 25>	(30,1)	(1,77)	(0,22)	(-1,127)	(-4,8)	(-20,11)	(-136,4)	(-30,9)	(-25,126)	(-22,16)	(4,22)	(-11,4)	(-7,13)	(-5,7)	(-2,8)	(-21,17)	
L1D 26>	(0,19)	(-2,98)	(-4,4)	(-5,16)	(-11,10)	(-26,109)	(-15,4)	(4,11)	(-7,9)	(-1,17)	(-16,4)	(-21,3)	(-31,1)	(-23,4)	(-22,4)	(1,23)	
L1D 27>	(1,24)	(4,4)	(-4,3)	(0,34)	(-1,21)	(-3,67)	(-6,11)	(-7,24)	(-27,78)	(-106,1)	(-5,19)	(-364,4)	(-365,6)	(-11,8)	(2,7)	(-132,4)	
L1D 28>	(-1,56)	(-27,4)	(15,17)	(-7,49)	(4,67)	(-23,18)	(-21,21)	(-34,14)	(-28,105)	(10,9)	(0,118)	(-105,1)	(1,79)	(-360,15)	(-331,9)	(-344,4)	
L1D 29>	(-28,17)	(-29,34)	(0,61)	(-135,1)	(-359,1)	(-30,1)	(1,127)	(-35,9)	(-11,9)	(-361,7)	(-24,10)	(-22,1)	(4,35)	(-7,9)	(-386,3)	(-1,41)	
L1D 30>	(4,25)	(15,1)	(-36,6)	(0,17)	(-19,1)	(-29,4)	(-25,6)	(1,99)	(-30,16)	(-1,39)	(-11,1)	(-362,4)	(-7,8)	(-35,6)	(-110,1)	(2,1)	
L1D 31>	(-108,1)	(-11,16)	(0,56)	(-20,5)	(-7,14)	(-360,3)	(-372,2)	(-136,3)	(15,7)	(11,8)	(-1,18)	(-21,2)	(-31,93)	(4,29)	(-363,4)	(1,15)	
L1D 32>	(-94,2)	(5,3)	(0,36)	(-104,2)	(-147,2)	(-11,11)	(-31,9)	(-416,1)	(6,2)	(-32,74)	(1,12)	(4,44)	(-142,11)	(-7,6)	(-395,2)	(-148,2)	
L1D 33>	(-22,11)	(0,85)	(15,10)	(-122,3)	(-388,3)	(1,31)	(-33,31)	(-11,8)	(4,35)	(-7,10)	(-138,9)	(-38,6)	(77,1)	(-365,16)	(3,4)	(30,6)	
L1D 34>	(0,74)	(1,15)	(-34,66)	(-149,3)	(15,8)	(-144,1)	(-11,22)	(7,2)	(-39,19)	(-40,10)	(-366,2)	(-29,19)	(-1,6)	(4,18)	(-7,18)	(2,9)	
L1D 35>	(-57,1)	(-74,2)	(5,5)	(0,72)	(1,16)	(-1,4)	(-146,6)	(-135,6)	(-392,4)	(10,5)	(4,52)	(-40,6)	(-30,11)	(-150,1)	(15,10)	(-35,41)	
L1D 36>	(0,80)	(-1,8)	(-36,60)	(-30,5)	(-41,7)	(4,12)	(1,29)	(-31,13)	(-402,1)	(-25,5)	(-7,39)	(15,27)	(-11,5)	(-29,2)	(-26,2)	(-35,7)	
L1D 37>	(7,3)	(-1,9)	(0,71)	(1,28)	(-11,5)	(-37,45)	(-341,2)	(-137,6)	(-32,23)	(-21,1)	(-396,1)	(14,2)	(-148,7)	(15,6)	(4,41)	(-36,7)	
L1D 38>	(4,29)	(-358,5)	(0,122)	(-2,79)	(-11,6)	(-154,8)	(-386,13)	(-148,1)	(78,3)	(-33,39)	(-77,3)	(-7,37)	(-38,119)	(-27,10)	(-149,26)	(1,73)	
L1D 39>	(1,64)	(4,93)	(-38,10)	(-36,5)	(-396,18)	(-39,103)	(-7,30)	(-21,9)	(0,110)	(-11,23)	(-45,23)	(-149,24)	(2,17)	(-23,11)	(15,1)	(-34,57)	
L1D 40>	(0,89)	(4,23)	(-151,6)	(-256,1)	(-35,23)	(-45,13)	(-39,7)	(1,44)	(-40,52)	(-29,12)	(-7,20)	(-30,14)	(3,4)	(15,13)	(-372,10)	(-11,14)	
L1D 41>	(-29,6)	(-47,20)	(0,122)	(1,61)	(-46,21)	(-41,50)	(-40,9)	(-1,13)	(2,5)	(-7,48)	(4,24)	(-31,15)	(-35,7)	(255,1)	(-36,27)	(15,7)	
L1D 42>	(4,29)	(11,8)	(0,116)	(-42,106)	(-1,17)	(-405,8)	(2,11)	(1,49)	(-37,48)	(-36,10)	(-410,5)	(-21,14)	(-8,1)	(3,18)	(-153,12)	(-343,4)	
L1D 43>	(-1,14)	(0,92)	(4,52)	(-4,4)	(-42,10)	(-32,4)	(1,57)	(-43,78)	(-396,19)	(-36,5)	(-7,35)	(-21,18)	(-11,9)	(-375,1)	(-48,3)	(14,3)	
L1D 44>	(7,20)	(1,38)	(-39,25)	(15,23)	(2,18)	(0,120)	(-144,5)	(14,1)	(-44,105)	(-11,12)	(-7,29)	(-409,5)	(4,60)	(30,7)	(-154,21)	(-376,5)	
L1D 45>	(-21,5)	(1,42)	(-50,11)	(-34,1)	(-156,9)	(0,79)	(-338,4)	(-45,95)	(-40,28)	(-401,4)	(-29,8)	(-44,15)	(-11,9)	(4,36)	(-7,25)	(-145,9)	
L1D 46>	(-36,10)	(0,117)	(-3,7)	(-11,1)	(-401,6)	(1,47)	(-46,79)	(15,12)	(-403,6)	(-35,11)	(-31,5)	(-41,40)	(4,46)	(7,19)	(-263,4)	(-40,11)	
L1D 47>	(0,39)	(-52,12)	(7,28)	(1,27)	(-47,86)	(29,1)	(69,3)	(4,11)	(-158,2)	(-46,5)	(-7,30)	(-11,21)	(-1,11)	(-42,18)	(-379,4)	(15,6)	
L1D 48>	(0,46)	(-416,5)	(7,22)	(-11,6)	(-54,18)	(-53,10)	(4,49)	(1,9)	(-105,4)	(-38,8)	(-47,8)	(-48,68)	(-43,16)	(11,1)	(-158,10)	(-406,8)	
[...]
L1D 474>	(-463,1)	(1,0)	(1,0)	(1,0)	(1,0)	(1,0)	(1,0)	(1,0)	(1,0)	(1,0)	(1,0)	(1,0)	(1,0)	(1,0)	(1,0)	(1,0)	
L1D 475>	(-464,1)	(-468,1)	(1,0)	(1,0)	(1,0)	(1,0)	(1,0)	(1,0)	(1,0)	(1,0)	(1,0)	(1,0)	(1,0)	(1,0)	(1,0)	(1,0)	
L1D 476>	(-465,4)	(-466,2)	(-392,1)	(-507,1)	(1,0)	(1,0)	(1,0)	(1,0)	(1,0)	(1,0)	(1,0)	(1,0)	(1,0)	(1,0)	(1,0)	(1,0)	
L1D 477>	(-467,1)	(-476,3)	(0,2)	(-457,1)	(-442,1)	(1,0)	(1,0)	(1,0)	(1,0)	(1,0)	(1,0)	(1,0)	(1,0)	(1,0)	(1,0)	(1,0)	
L1D 478>	(-467,1)	(-211,1)	(-138,1)	(-477,1)	(1,0)	(1,0)	(1,0)	(1,0)	(1,0)	(1,0)	(1,0)	(1,0)	(1,0)	(1,0)	(1,0)	(1,0)	
L1D 479>	(-468,1)	(-200,1)	(1,0)	(1,0)	(1,0)	(1,0)	(1,0)	(1,0)	(1,0)	(1,0)	(1,0)	(1,0)	(1,0)	(1,0)	(1,0)	(1,0)	
L1D 480>	(1,0)	(1,0)	(1,0)	(1,0)	(1,0)	(1,0)	(1,0)	(1,0)	(1,0)	(1,0)	(1,0)	(1,0)	(1,0)	(1,0)	(1,0)	(1,0)	
L1D 481>	(-470,1)	(1,0)	(1,0)	(1,0)	(1,0)	(1,0)	(1,0)	(1,0)	(1,0)	(1,0)	(1,0)	(1,0)	(1,0)	(1,0)	(1,0)	(1,0)	
L1D 482>	(-471,1)	(1,0)	(1,0)	(1,0)	(1,0)	(1,0)	(1,0)	(1,0)	(1,0)	(1,0)	(1,0)	(1,0)	(1,0)	(1,0)	(1,0)	(1,0)	
L1D 483>	(1,0)	(1,0)	(1,0)	(1,0)	(1,0)	(1,0)	(1,0)	(1,0)	(1,0)	(1,0)	(1,0)	(1,0)	(1,0)	(1,0)	(1,0)	(1,0)	
L1D 484>	(26,1)	(-473,2)	(1,0)	(1,0)	(1,0)	(1,0)	(1,0)	(1,0)	(1,0)	(1,0)	(1,0)	(1,0)	(1,0)	(1,0)	(1,0)	(1,0)	
L1D 485>	(-474,2)	(-495,1)	(1,0)	(1,0)	(1,0)	(1,0)	(1,0)	(1,0)	(1,0)	(1,0)	(1,0)	(1,0)	(1,0)	(1,0)	(1,0)	(1,0)	
L1D 486>	(-331,1)	(13,1)	(-475,7)	(15,1)	(1,0)	(1,0)	(1,0)	(1,0)	(1,0)	(1,0)	(1,0)	(1,0)	(1,0)	(1,0)	(1,0)	(1,0)	
L1D 487>	(-498,1)	(-476,1)	(1,0)	(1,0)	(1,0)	(1,0)	(1,0)	(1,0)	(1,0)	(1,0)	(1,0)	(1,0)	(1,0)	(1,0)	(1,0)	(1,0)	
L1D 488>	(-477,4)	(1,0)	(1,0)	(1,0)	(1,0)	(1,0)	(1,0)	(1,0)	(1,0)	(1,0)	(1,0)	(1,0)	(1,0)	(1,0)	(1,0)	(1,0)	
L1D 489>	(-488,1)	(1,0)	(1,0)	(1,0)	(1,0)	(1,0)	(1,0)	(1,0)	(1,0)	(1,0)	(1,0)	(1,0)	(1,0)	(1,0)	(1,0)	(1,0)	
L1D 490>	(-467,1)	(1,0)	(1,0)	(1,0)	(1,0)	(1,0)	(1,0)	(1,0)	(1,0)	(1,0)	(1,0)	(1,0)	(1,0)	(1,0)	(1,0)	(1,0)	
L1D 491>	(-490,1)	(-320,1)	(-331,1)	(-480,4)	(1,0)	(1,0)	(1,0)	(1,0)	(1,0)	(1,0)	(1,0)	(1,0)	(1,0)	(1,0)	(1,0)	(1,0)	
L1D 492>	(-481,4)	(1,0)	(1,0)	(1,0)	(1,0)	(1,0)	(1,0)	(1,0)	(1,0)	(1,0)	(1,0)	(1,0)	(1,0)	(1,0)	(1,0)	(1,0)	
L1D 493>	(-482,6)	(-504,1)	(1,0)	(1,0)	(1,0)	(1,0)	(1,0)	(1,0)	(1,0)	(1,0)	(1,0)	(1,0)	(1,0)	(1,0)	(1,0)	(1,0)	
L1D 494>	(-484,1)	(-215,1)	(-504,1)	(1,0)	(1,0)	(1,0)	(1,0)	(1,0)	(1,0)	(1,0)	(1,0)	(1,0)	(1,0)	(1,0)	(1,0)	(1,0)	
L1D 495>	(-220,1)	(-221,1)	(-494,1)	(-222,1)	(1,0)	(1,0)	(1,0)	(1,0)	(1,0)	(1,0)	(1,0)	(1,0)	(1,0)	(1,0)	(1,0)	(1,0)	
L1D 496>	(1,0)	(1,0)	(1,0)	(1,0)	(1,0)	(1,0)	(1,0)	(1,0)	(1,0)	(1,0)	(1,0)	(1,0)	(1,0)	(1,0)	(1,0)	(1,0)	
L1D 497>	(-331,1)	(-486,2)	(1,0)	(1,0)	(1,0)	(1,0)	(1,0)	(1,0)	(1,0)	(1,0)	(1,0)	(1,0)	(1,0)	(1,0)	(1,0)	(1,0)	
L1D 498>	(-487,1)	(-215,1)	(1,0)	(1,0)	(1,0)	(1,0)	(1,0)	(1,0)	(1,0)	(1,0)	(1,0)	(1,0)	(1,0)	(1,0)	(1,0)	(1,0)	
L1D 499>	(1,0)	(1,0)	(1,0)	(1,0)	(1,0)	(1,0)	(1,0)	(1,0)	(1,0)	(1,0)	(1,0)	(1,0)	(1,0)	(1,0)	(1,0)	(1,0)	
L1D 500>	(-511,1)	(1,0)	(1,0)	(1,0)	(1,0)	(1,0)	(1,0)	(1,0)	(1,0)	(1,0)	(1,0)	(1,0)	(1,0)	(1,0)	(1,0)	(1,0)	
L1D 501>	(1,0)	(1,0)	(1,0)	(1,0)	(1,0)	(1,0)	(1,0)	(1,0)	(1,0)	(1,0)	(1,0)	(1,0)	(1,0)	(1,0)	(1,0)	(1,0)	
L1D 502>	(-491,1)	(1,0)	(1,0)	(1,0)	(1,0)	(1,0)	(1,0)	(1,0)	(1,0)	(1,0)	(1,0)	(1,0)	(1,0)	(1,0)	(1,0)	(1,0)	
L1D 503>	(-492,1)	(-503,1)	(-222,1)	(1,0)	(1,0)	(1,0)	(1,0)	(1,0)	(1,0)	(1,0)	(1,0)	(1,0)	(1,0)	(1,0)	(1,0)	(1,0)	
L1D 504>	(-4,1)	(-323,1)	(-493,1)	(-331,1)	(-224,1)	(0,2)	(1,0)	(1,0)	(1,0)	(1,0)	(1,0)	(1,0)	(1,0)	(1,0)	(1,0)	(1,0)	
L1D 505>	(-494,1)	(1,0)	(1,0)	(1,0)	(1,0)	(1,0)	(1,0)	(1,0)	(1,0)	(1,0)	(1,0)	(1,0)	(1,0)	(1,0)	(1,0)	(1,0)	
L1D 506>	(0,1)	(1,0)	(1,0)	(1,0)	(1,0)	(1,0)	(1,0)	(1,0)	(1,0)	(1,0)	(1,0)	(1,0)	(1,0)	(1,0)	(1,0)	(1,0)	
L1D 507>	(1,0)	(1,0)	(1,0)	(1,0)	(1,0)	(1,0)	(1,0)	(1,0)	(1,0)	(1,0)	(1,0)	(1,0)	(1,0)	(1,0)	(1,0)	(1,0)	
L1D 508>	(-509,1)	(1,0)	(1,0)	(1,0)	(1,0)	(1,0)	(1,0)	(1,0)	(1,0)	(1,0)	(1,0)	(1,0)	(1,0)	(1,0)	(1,0)	(1,0)	
L1D 509>	(-508,2)	(-331,1)	(-509,1)	(-232,1)	(-498,2)	(1,0)	(1,0)	(1,0)	(1,0)	(1,0)	(1,0)	(1,0)	(1,0)	(1,0)	(1,0)	(1,0)	
L1D 510>	(-499,1)	(1,0)	(1,0)	(1,0)	(1,0)	(1,0)	(1,0)	(1,0)	(1,0)	(1,0)	(1,0)	(1,0)	(1,0)	(1,0)	(1,0)	(1,0)	
L1D 511>	(-227,1)	(1,0)	(1,0)	(1,0)	(1,0)	(1,0)	(1,0)	(1,0)	(1,0)	(1,0)	(1,0)	(1,0)	(1,0)	(1,0)	(1,0)	(1,0)	

L2C -64>	(1,128)	(2,17)	(-8,13)	(-6,27)	(-1,96)	(9,12)	(-5,8)	(-3,6)	(-4,8)	(53,3)	(29,3)	(-2,12)	(4,7)	(-11,1)	(0,3)	(-7,9)	
L2C -63>	(1,12)	(1,0)	(1,0)	(1,0)	(1,0)	(1,0)	(1,0)	(1,0)	(1,0)	(1,0)	(1,0)	(1,0)	(1,0)	(1,0)	(1,0)	(1,0)	
L2C -62>	(1,1)	(2,1)	(22,1)	(1,0)	(1,0)	(1,0)	(1,0)	(1,0)	(1,0)	(1,0)	(1,0)	(1,0)	(1,0)	(1,0)	(1,0)	(1,0)	
L2C -61>	(23,1)	(2,1)	(34,1)	(1,0)	(1,0)	(1,0)	(1,0)	(1,0)	(1,0)	(1,0)	(1,0)	(1,0)	(1,0)	(1,0)	(1,0)	(1,0)	
L2C -60>	(1,2)	(16,2)	(17,1)	(1,0)	(1,0)	(1,0)	(1,0)	(1,0)	(1,0)	(1,0)	(1,0)	(1,0)	(1,0)	(1,0)	(1,0)	(1,0)	
L2C -59>	(20,2)	(40,1)	(31,1)	(9,1)	(-2,1)	(1,1)	(24,1)	(1,0)	(1,0)	(1,0)	(1,0)	(1,0)	(1,0)	(1,0)	(1,0)	(1,0)	
L2C -58>	(-1,1)	(39,1)	(1,2)	(1,0)	(1,0)	(1,0)	(1,0)	(1,0)	(1,0)	(1,0)	(1,0)	(1,0)	(1,0)	(1,0)	(1,0)	(1,0)	
L2C -57>	(37,1)	(54,1)	(1,1)	(8,1)	(17,1)	(1,0)	(1,0)	(1,0)	(1,0)	(1,0)	(1,0)	(1,0)	(1,0)	(1,0)	(1,0)	(1,0)	
L2C -56>	(32,1)	(1,2)	(35,2)	(46,1)	(-1,10)	(30,1)	(1,0)	(1,0)	(1,0)	(1,0)	(1,0)	(1,0)	(1,0)	(1,0)	(1,0)	(1,0)	
L2C -55>	(1,4)	(2,1)	(4,1)	(6,1)	(-5,1)	(16,1)	(7,1)	(39,1)	(1,0)	(1,0)	(1,0)	(1,0)	(1,0)	(1,0)	(1,0)	(1,0)	
L2C -54>	(2,2)	(1,8)	(56,1)	(44,1)	(16,1)	(25,1)	(-5,1)	(1,0)	(1,0)	(1,0)	(1,0)	(1,0)	(1,0)	(1,0)	(1,0)	(1,0)	
L2C -53>	(-1,1)	(41,1)	(1,17)	(2,2)	(21,1)	(1,0)	(1,0)	(1,0)	(1,0)	(1,0)	(1,0)	(1,0)	(1,0)	(1,0)	(1,0)	(1,0)	
L2C -52>	(6,1)	(1,7)	(3,1)	(51,1)	(-4,1)	(4,1)	(35,1)	(26,1)	(1,0)	(1,0)	(1,0)	(1,0)	(1,0)	(1,0)	(1,0)	(1,0)	
L2C -51>	(1,8)	(17,2)	(51,1)	(3,1)	(2,1)	(34,1)	(28,2)	(-6,1)	(32,1)	(9,2)	(26,1)	(1,0)	(1,0)	(1,0)	(1,0)	(1,0)	
L2C -50>	(18,1)	(32,3)	(-1,1)	(1,9)	(5,1)	(4,1)	(2,2)	(12,1)	(24,2)	(8,1)	(37,1)	(15,1)	(17,1)	(1,0)	(1,0)	(1,0)	
L2C -49>	(12,1)	(6,1)	(2,3)	(1,12)	(15,1)	(-1,1)	(27,1)	(24,1)	(32,1)	(41,1)	(46,1)	(45,1)	(1,0)	(1,0)	(1,0)	(1,0)	
L2C -48>	(29,1)	(1,9)	(18,1)	(-2,1)	(59,1)	(-1,1)	(1,0)	(1,0)	(1,0)	(1,0)	(1,0)	(1,0)	(1,0)	(1,0)	(1,0)	(1,0)	
L2C -47>	(49,1)	(-3,1)	(1,10)	(34,1)	(43,1)	(-1,1)	(16,1)	(31,1)	(48,1)	(13,1)	(3,1)	(1,0)	(1,0)	(1,0)	(1,0)	(1,0)	
L2C -46>	(-8,2)	(41,2)	(1,7)	(2,5)	(-1,4)	(32,2)	(3,1)	(35,1)	(1,0)	(1,0)	(1,0)	(1,0)	(1,0)	(1,0)	(1,0)	(1,0)	
L2C -45>	(55,1)	(22,1)	(27,2)	(1,3)	(33,1)	(2,1)	(0,1)	(32,1)	(-1,4)	(1,0)	(1,0)	(1,0)	(1,0)	(1,0)	(1,0)	(1,0)	
L2C -44>	(-1,1)	(1,5)	(43,1)	(4,1)	(-3,1)	(3,1)	(15,2)	(-10,1)	(28,1)	(1,0)	(1,0)	(1,0)	(1,0)	(1,0)	(1,0)	(1,0)	
L2C -43>	(31,1)	(2,2)	(1,5)	(28,1)	(-18,1)	(55,1)	(-2,1)	(4,1)	(-1,5)	(6,1)	(29,1)	(44,2)	(21,1)	(32,2)	(51,1)	(30,1)	
L2C -42>	(32,2)	(1,6)	(2,2)	(31,1)	(42,1)	(35,1)	(3,1)	(-1,2)	(43,1)	(24,1)	(18,2)	(6,1)	(-5,1)	(-20,1)	(25,1)	(59,1)	
L2C -41>	(45,1)	(14,1)	(1,9)	(40,1)	(24,1)	(-2,1)	(10,1)	(31,1)	(12,1)	(-1,7)	(38,1)	(16,2)	(15,1)	(25,1)	(4,1)	(22,1)	
L2C -40>	(2,4)	(-1,7)	(60,4)	(1,10)	(21,1)	(6,1)	(30,1)	(41,5)	(7,1)	(3,1)	(38,1)	(10,1)	(-16,1)	(19,1)	(34,1)	(52,1)	
L2C -39>	(1,11)	(44,1)	(-13,1)	(8,2)	(17,1)	(3,1)	(30,2)	(18,1)	(-4,1)	(57,1)	(2,3)	(-1,2)	(43,1)	(25,1)	(21,1)	(35,1)	
L2C -38>	(1,15)	(23,2)	(4,3)	(36,2)	(57,1)	(16,2)	(-4,1)	(17,6)	(-1,4)	(-2,2)	(6,2)	(-15,1)	(30,1)	(27,3)	(34,3)	(41,1)	
L2C -37>	(-1,4)	(5,2)	(1,9)	(-15,1)	(-3,2)	(30,1)	(51,2)	(24,1)	(33,1)	(16,1)	(36,7)	(4,1)	(3,1)	(28,1)	(23,1)	(21,1)	
L2C -36>	(39,1)	(33,2)	(23,1)	(30,3)	(1,10)	(37,3)	(0,2)	(29,3)	(3,3)	(12,1)	(17,1)	(-5,1)	(-1,9)	(38,1)	(25,1)	(51,1)	
L2C -35>	(1,11)	(36,3)	(20,2)	(18,1)	(19,1)	(6,1)	(27,2)	(31,4)	(33,2)	(-3,1)	(-7,1)	(-1,12)	(16,2)	(10,2)	(4,2)	(17,1)	
L2C -34>	(0,2)	(1,19)	(38,2)	(39,1)	(2,5)	(47,1)	(55,2)	(36,2)	(35,3)	(15,2)	(-1,2)	(-4,3)	(18,1)	(-17,1)	(22,1)	(28,2)	
L2C -33>	(1,10)	(17,2)	(34,8)	(31,6)	(15,2)	(14,3)	(-17,2)	(32,2)	(60,1)	(4,1)	(41,2)	(42,1)	(38,2)	(-4,2)	(18,1)	(10,1)	
L2C -32>	(1,12)	(33,3)	(15,5)	(16,9)	(35,3)	(3,3)	(-3,2)	(40,3)	(30,3)	(42,2)	(34,5)	(17,1)	(22,2)	(2,11)	(14,4)	(5,5)	
L2C -31>	(33,3)	(2,2)	(-16,2)	(32,4)	(4,3)	(-3,1)	(37,2)	(9,2)	(-10,1)	(15,2)	(11,1)	(1,5)	(28,1)	(-22,1)	(22,2)	(18,1)	
L2C -30>	(31,6)	(1,20)	(-6,1)	(-1,5)	(44,1)	(16,1)	(30,7)	(39,2)	(7,1)	(8,1)	(-9,2)	(29,1)	(-7,1)	(-13,1)	(3,1)	(14,2)	
L2C -29>	(22,1)	(1,9)	(3,5)	(-5,1)	(-1,16)	(-2,2)	(10,2)	(36,4)	(37,2)	(0,1)	(32,3)	(34,1)	(45,1)	(7,2)	(2,3)	(30,2)	
L2C -28>	(1,5)	(-5,2)	(35,5)	(-17,1)	(26,2)	(22,2)	(21,1)	(29,3)	(-1,3)	(2,3)	(12,1)	(14,2)	(32,2)	(34,1)	(-4,1)	(-10,1)	
L2C -27>	(-32,1)	(-9,1)	(1,9)	(21,1)	(5,1)	(12,2)	(14,1)	(13,3)	(2,5)	(-7,1)	(-3,1)	(16,2)	(-2,2)	(28,1)	(-18,1)	(4,3)	
L2C -26>	(24,3)	(31,1)	(10,4)	(-23,1)	(19,2)	(28,2)	(30,2)	(-7,1)	(5,2)	(3,2)	(-6,1)	(-22,1)	(25,4)	(4,2)	(1,6)	(-32,1)	
L2C -25>	(-4,2)	(7,2)	(37,1)	(23,5)	(3,3)	(1,11)	(-1,3)	(17,2)	(8,6)	(29,1)	(32,2)	(9,5)	(2,3)	(46,1)	(19,1)	(-12,3)	
L2C -24>	(34,4)	(-8,1)	(-1,7)	(1,10)	(25,2)	(-4,1)	(26,2)	(11,2)	(20,4)	(32,4)	(21,2)	(33,3)	(7,1)	(-3,1)	(0,1)	(15,3)	
L2C -23>	(-1,5)	(42,1)	(-2,4)	(18,2)	(-9,2)	(1,22)	(32,2)	(26,1)	(-4,2)	(-19,3)	(-8,2)	(23,2)	(-10,2)	(15,4)	(9,2)	(33,1)	
L2C -22>	(-1,18)	(1,13)	(3,2)	(5,1)	(34,2)	(8,3)	(-16,3)	(2,6)	(15,3)	(16,4)	(-14,3)	(24,4)	(-8,1)	(-34,1)	(61,1)	(-32,1)	
L2C -21>	(-4,2)	(19,4)	(10,3)	(-17,2)	(11,2)	(1,11)	(-1,8)	(-5,2)	(18,2)	(17,1)	(2,5)	(-24,2)	(15,4)	(20,2)	(-16,3)	(4,7)	
L2C -20>	(1,14)	(30,3)	(9,2)	(15,4)	(3,3)	(-1,9)	(0,1)	(-15,2)	(22,2)	(20,2)	(38,3)	(46,2)	(5,1)	(-17,2)	(16,3)	(4,3)	
L2C -19>	(10,2)	(23,2)	(-1,6)	(1,17)	(-3,3)	(2,4)	(-2,3)	(49,1)	(18,1)	(26,1)	(5,3)	(38,2)	(0,10)	(6,3)	(35,1)	(11,2)	
L2C -18>	(1,28)	(-3,2)	(-1,2)	(12,3)	(-6,3)	(9,2)	(18,3)	(17,1)	(-2,1)	(19,2)	(2,5)	(-11,1)	(-19,1)	(14,4)	(27,1)	(10,2)	
L2C -17>	(15,6)	(2,1)	(-12,2)	(16,9)	(-1,12)	(-27,1)	(27,4)	(1,37)	(-5,4)	(23,1)	(-2,4)	(9,6)	(-6,2)	(28,1)	(42,1)	(-14,3)	
L2C -16>	(-2,9)	(8,5)	(14,8)	(-1,16)	(33,4)	(-4,5)	(1,39)	(10,1)	(16,7)	(-3,4)	(2,8)	(4,7)	(32,5)	(-7,2)	(17,5)	(-16,8)	
L2C -15>	(-6,5)	(17,4)	(0,3)	(1,21)	(29,2)	(-2,4)	(-1,34)	(33,3)	(-18,2)	(15,11)	(32,6)	(16,9)	(4,1)	(2,3)	(35,1)	(-21,1)	
L2C -14>	(1,12)	(39,2)	(10,7)	(2,3)	(35,4)	(19,1)	(-16,3)	(54,1)	(9,1)	(-1,14)	(11,4)	(16,10)	(-33,1)	(18,3)	(31,3)	(28,1)	
L2C -13>	(2,4)	(6,1)	(24,1)	(-1,16)	(4,3)	(1,19)	(7,4)	(-16,2)	(10,4)	(-5,4)	(25,1)	(23,1)	(8,3)	(-23,1)	(13,2)	(12,10)	
L2C -12>	(3,4)	(-1,33)	(12,2)	(1,7)	(21,1)	(-23,1)	(-20,2)	(13,1)	(18,3)	(-35,2)	(-24,2)	(-3,1)	(38,1)	(34,2)	(27,3)	(11,2)	
L2C -11>	(9,3)	(11,1)	(-1,21)	(22,1)	(0,2)	(29,1)	(1,17)	(26,2)	(16,5)	(5,2)	(10,3)	(-2,1)	(-22,8)	(34,1)	(17,1)	(-4,10)	
L2C -10>	(11,5)	(1,13)	(4,3)	(-1,9)	(-19,2)	(-4,2)	(0,1)	(24,1)	(-15,1)	(40,1)	(-7,2)	(3,8)	(31,2)	(2,3)	(26,2)	(23,2)	
L2C -9>	(13,2)	(2,5)	(-1,15)	(5,2)	(-22,2)	(26,1)	(-2,5)	(-9,1)	(1,24)	(18,4)	(39,2)	(11,4)	(10,7)	(-32,2)	(4,11)	(-20,2)	
L2C -8>	(23,3)	(3,19)	(-29,2)	(-1,32)	(-2,9)	(1,22)	(9,12)	(15,4)	(-7,3)	(4,1)	(24,2)	(8,2)	(-20,3)	(-15,2)	(-17,3)	(5,11)	
L2C -7>	(-15,3)	(-1,127)	(1,26)	(6,3)	(3,11)	(15,2)	(8,5)	(51,2)	(2,10)	(-2,4)	(30,2)	(14,2)	(0,2)	(56,1)	(27,1)	(-8,5)	
L2C -6>	(1,35)	(-1,142)	(14,2)	(3,5)	(0,10)	(7,6)	(-2,5)	(-4,3)	(-8,4)	(8,3)	(30,3)	(-19,2)	(33,3)	(2,10)	(4,2)	(50,1)	
L2C -5>	(6,8)	(-9,4)	(2,12)	(3,25)	(-1,63)	(-5,3)	(4,9)	(-2,4)	(1,94)	(-23,2)	(0,5)	(-10,3)	(21,1)	(13,1)	(17,4)	(8,5)	
L2C -4>	(1,81)	(-3,5)	(5,29)	(3,16)	(-1,115)	(12,5)	(4,13)	(-15,3)	(-23,1)	(6,2)	(2,13)	(17,3)	(-33,3)	(-2,11)	(-4,8)	(37,2)	
L2C -3>	(-5,6)	(5,8)	(-1,159)	(-17,1)	(4,14)	(-20,3)	(1,43)	(2,38)	(40,1)	(61,1)	(-25,2)	(-13,3)	(-3,10)	(16,6)	(-30,1)	(-34,1)	
L2C -2>	(-4,5)	(3,7)	(-1,223)	(-2,11)	(5,3)	(1,35)	(2,4)	(16,5)	(28,1)	(18,1)	(33,1)	(4,2)	(11,2)	(-3,3)	(14,4)	(-17,1)	
L2C -1>	(-15,1)	(23,1)	(-1,179)	(22,1)	(-2,13)	(4,1)	(-7,4)	(-17,1)	(17,2)	(-3,2)	(20,1)	(-8,1)	(21,1)	(-31,2)	(9,2)	(25,1)	
L2C 0>	(1,57)	(-1,18)	(-3,4)	(15,2)	(5,11)	(-4,6)	(-19,3)	(-5,5)	(0,148)	(3,3)	(-32,2)	(18,1)	(11,2)	(-8,4)	(34,2)	(16,3)	
L2C 1>	(1,165)	(45,1)	(-3,1)	(-5,3)	(41,1)	(12,1)	(4,1)	(-1,4)	(2,6)	(-15,1)	(-4,2)	(-6,5)	(31,1)	(3,3)	(-23,1)	(-7,2)	
L2C 2>	(47,1)	(-2,5)	(1,142)	(2,16)	(3,8)	(-3,4)	(-8,2)	(-1,30)	(-7,2)	(-19,1)	(-4,2)	(5,1)	(-21,1)	(-11,1)	(34,1)	(-9,1)	
L2C 3>	(-2,21)	(-1,24)	(1,183)	(-8,17)	(-5,18)	(-13,1)	(-4,53)	(4,3)	(27,3)	(-16,5)	(-39,2)	(18,2)	(-33,3)	(6,7)	(23,2)	(14,6)	
L2C 4>	(1,71)	(-8,11)	(5,1)	(-28,3)	(-3,18)	(-4,14)	(-5,5)	(13,4)	(-1,62)	(-2,5)	(-22,3)	(-39,2)	(-6,5)	(2,11)	(32,2)	(29,2)	
L2C 5>	(-2,6)	(-7,3)	(1,80)	(-12,2)	(-1,47)	(9,2)	(15,3)	(21,3)	(-18,2)	(-4,6)	(-8,1)	(2,4)	(0,5)	(13,2)	(12,3)	(29,1)	
L2C 6>	(1,31)	(4,4)	(-1,57)	(-2,9)	(-14,2)	(-3,3)	(-5,1)	(-18,1)	(10,1)	(-4,6)	(-7,7)	(19,3)	(-8,4)	(32,3)	(-20,2)	(9,6)	
L2C 7>	(5,1)	(-1,39)	(1,35)	(-27,2)	(30,1)	(-11,3)	(9,2)	(8,4)	(2,3)	(-17,1)	(48,1)	(-5,3)	(3,3)	(19,2)	(-8,3)	(-46,1)	
L2C 8>	(-1,39)	(1,48)	(-32,3)	(-27,1)	(-8,4)	(2,25)	(-4,2)	(-3,4)	(-7,2)	(-9,6)	(-2,4)	(0,4)	(3,2)	(-18,2)	(-11,2)	(-16,6)	
L2C 9>	(1,50)	(-13,4)	(-16,4)	(-1,141)	(-2,18)	(20,3)	(-15,2)	(23,2)	(24,2)	(-19,3)	(-17,3)	(2,1)	(-8,2)	(37,1)	(7,1)	(-14,6)	
L2C 10>	(-2,36)	(-1,107)	(1,43)	(7,2)	(6,2)	(-32,2)	(-11,2)	(-3,2)	(-7,1)	(-31,1)	(-18,2)	(33,1)	(45,1)	(12,4)	(-16,3)	(2,3)	
L2C 11>	(-2,10)	(1,33)	(-16,2)	(2,7)	(-1,73)	(-4,5)	(-32,5)	(-19,1)	(19,2)	(-34,1)	(-23,1)	(-11,3)	(9,2)	(10,1)	(-10,2)	(3,4)	
L2C 12>	(-1,33)	(8,3)	(1,16)	(20,3)	(-5,1)	(-28,1)	(4,6)	(-11,7)	(-2,4)	(-21,1)	(21,3)	(-3,1)	(-29,1)	(7,2)	(-19,1)	(30,1)	
L2C 13>	(5,2)	(-23,3)	(-1,41)	(1,25)	(-17,3)	(-22,1)	(-14,5)	(-19,4)	(-5,5)	(18,2)	(-30,2)	(3,5)	(-33,4)	(24,2)	(-41,1)	(36,1)	
L2C 14>	(-13,11)	(-30,3)	(1,22)	(-1,90)	(-6,2)	(8,1)	(-9,1)	(20,1)	(-19,2)	(-20,3)	(-16,8)	(-15,2)	(-45,3)	(-12,3)	(2,5)	(11,1)	
L2C 15>	(-14,17)	(1,25)	(-29,2)	(34,1)	(-28,2)	(2,4)	(-43,1)	(-13,1)	(-16,7)	(-9,1)	(-1,41)	(-8,4)	(-32,5)	(14,4)	(-15,12)	(-7,3)	
L2C 16>	(-26,3)	(-1,63)	(1,16)	(-2,5)	(10,2)	(3,4)	(27,2)	(2,10)	(-16,3)	(8,3)	(-21,3)	(14,9)	(-15,11)	(28,1)	(25,1)	(-18,5)	
L2C 17>	(27,16)	(-1,17)	(-25,1)	(-15,4)	(-49,1)	(-35,1)	(-37,2)	(-31,1)	(-9,4)	(-18,4)	(5,10)	(1,14)	(-14,1)	(-2,4)	(-23,3)	(19,1)	
L2C 18>	(-16,4)	(-4,1)	(40,1)	(-17,8)	(1,15)	(-19,1)	(-26,1)	(-22,6)	(-1,25)	(2,4)	(-8,1)	(-24,2)	(3,3)	(-20,2)	(30,1)	(-15,2)	
L2C 19>	(-4,1)	(-16,4)	(-1,25)	(11,3)	(-8,5)	(-17,2)	(-6,2)	(-19,2)	(1,12)	(-5,1)	(-15,3)	(-37,1)	(-18,6)	(13,2)	(-23,5)	(-14,4)	
L2C 20>	(1,17)	(-21,1)	(-19,2)	(-49,1)	(13,1)	(-17,3)	(8,1)	(-39,1)	(4,4)	(-1,7)	(-28,2)	(-36,1)	(-38,1)	(-4,2)	(-9,1)	(-8,5)	
L2C 21>	(-1,8)	(-22,2)	(14,1)	(12,2)	(-52,1)	(-25,2)	(17,2)	(2,2)	(-33,1)	(-17,3)	(-8,1)	(-18,3)	(-24,1)	(1,9)	(-26,1)	(-4,3)	
L2C 22>	(1,20)	(-1,19)	(-18,1)	(-45,2)	(-32,4)	(-24,1)	(17,1)	(-17,1)	(15,1)	(-21,1)	(-2,1)	(5,7)	(-20,1)	(-7,2)	(10,2)	(-49,1)	
L2C 23>	(27,1)	(-1,20)	(1,14)	(-13,2)	(8,1)	(-45,1)	(-17,3)	(-35,1)	(0,2)	(-21,2)	(-32,3)	(-56,1)	(-15,3)	(-23,2)	(-22,5)	(17,3)	
L2C 24>	(1,11)	(-16,2)	(-22,2)	(-32,3)	(-20,5)	(-1,32)	(8,2)	(-7,1)	(-8,2)	(-25,4)	(-9,2)	(-23,7)	(-12,1)	(-2,1)	(17,1)	(-15,2)	
L2C 25>	(1,5)	(-17,6)	(-31,2)	(11,3)	(9,2)	(-1,18)	(-24,6)	(5,2)	(-16,1)	(-15,1)	(6,1)	(-32,4)	(-20,1)	(-2,4)	(-55,1)	(10,1)	
L2C 26>	(-1,8)	(-12,1)	(1,3)	(-54,1)	(13,9)	(-25,3)	(-5,2)	(-9,2)	(-13,1)	(8,3)	(-17,2)	(-33,3)	(-39,1)	(-22,1)	(-11,2)	(16,2)	
L2C 27>	(2,6)	(-15,2)	(-43,3)	(-28,4)	(1,8)	(-11,4)	(-10,2)	(-35,2)	(-8,2)	(-4,2)	(-21,3)	(-13,3)	(-16,2)	(5,6)	(-52,1)	(-45,1)	
L2C 28>	(-15,2)	(-12,1)	(1,7)	(-29,11)	(-22,1)	(-27,3)	(-24,1)	(14,3)	(4,2)	(-6,1)	(-18,2)	(-13,1)	(-14,2)	(-2,2)	(-1,3)	(-23,3)	
L2C 29>	(13,1)	(-9,3)	(-10,1)	(-13,2)	(-2,2)	(9,1)	(15,2)	(-31,5)	(1,11)	(20,1)	(-30,1)	(-8,1)	(-18,2)	(-33,2)	(-1,1)	(-20,1)	
L2C 30>	(-8,3)	(1,2)	(-16,2)	(4,2)	(2,8)	(-31,6)	(-2,2)	(8,3)	(0,2)	(-12,2)	(-47,2)	(-30,3)	(9,2)	(-4,2)	(-32,1)	(-26,2)	
L2C 31>	(1,12)	(-33,3)	(-1,6)	(-8,3)	(-4,1)	(-32,11)	(-38,4)	(-15,2)	(-29,2)	(0,2)	(-9,2)	(3,3)	(-30,2)	(-39,1)	(-25,1)	(14,5)	
L2C 32>	(-5,1)	(-1,56)	(-41,2)	(-6,2)	(-20,4)	(-31,3)	(-4,4)	(-17,3)	(-26,1)	(4,3)	(13,3)	(8,1)	(-38,3)	(1,6)	(2,6)	(-15,3)	
L2C 33>	(-1,9)	(-25,4)	(-34,3)	(-2,4)	(-17,2)	(-16,3)	(1,13)	(3,1)	(9,1)	(-3,1)	(-31,3)	(-43,1)	(-26,2)	(-28,1)	(-5,3)	(14,2)	
L2C 34>	(-33,2)	(-49,1)	(21,2)	(1,14)	(-32,5)	(-52,1)	(-35,1)	(-8,2)	(-2,3)	(-18,2)	(-1,7)	(4,1)	(-15,4)	(0,2)	(-4,6)	(-26,4)	
L2C 35>	(-15,3)	(-1,8)	(1,12)	(-36,1)	(-21,1)	(-7,1)	(-46,1)	(5,1)	(-34,4)	(-54,1)	(-29,2)	(-30,3)	(-16,2)	(22,1)	(2,1)	(4,1)	
L2C 36>	(4,2)	(-15,2)	(-33,1)	(-38,2)	(-24,1)	(3,2)	(-1,4)	(21,1)	(-34,2)	(5,2)	(-25,1)	(-35,8)	(-16,3)	(-30,1)	(-21,2)	(-17,1)	
L2C 37>	(-35,7)	(1,6)	(-39,2)	(-1,6)	(-16,2)	(-9,3)	(-20,1)	(-33,2)	(-38,1)	(-4,2)	(-26,1)	(-22,2)	(15,1)	(-18,1)	(-40,1)	(-21,1)	
L2C 38>	(5,2)	(1,2)	(-33,3)	(-22,3)	(-17,1)	(-32,2)	(-29,2)	(-36,1)	(-35,2)	(-42,1)	(-28,1)	(-47,1)	(-34,2)	(20,1)	(-51,1)	(-2,2)	
L2C 39>	(-18,1)	(-7,1)	(-40,5)	(-32,2)	(2,1)	(-34,1)	(-16,1)	(-1,4)	(-41,2)	(-15,1)	(1,2)	(-17,1)	(-27,1)	(-19,1)	(-14,1)	(-31,1)	
L2C 40>	(-16,1)	(1,5)	(-17,1)	(-12,1)	(-11,2)	(-1,5)	(-6,1)	(-42,2)	(-36,1)	(-23,2)	(-33,1)	(2,1)	(-18,1)	(-8,2)	(-2,1)	(-32,1)	
L2C 41>	(1,11)	(-15,1)	(-4,2)	(-34,1)	(-22,1)	(-36,1)	(-31,2)	(-13,1)	(5,1)	(-42,1)	(-2,1)	(-49,1)	(-40,2)	(-38,1)	(-16,2)	(-58,1)	
L2C 42>	(-40,1)	(-1,3)	(-57,1)	(-4,3)	(-38,1)	(1,1)	(-3,1)	(-15,1)	(-33,1)	(-43,2)	(-5,1)	(-17,2)	(-26,1)	(-50,1)	(-41,1)	(-42,1)	
L2C 43>	(-1,3)	(1,4)	(-50,1)	(-60,1)	(-7,1)	(-57,2)	(-42,2)	(-54,1)	(-47,2)	(-34,1)	(-33,1)	(-45,3)	(-35,1)	(-21,1)	(-53,1)	(1,0)	
L2C 44>	(-52,2)	(-59,1)	(-4,1)	(-35,2)	(-45,1)	(-29,1)	(-50,1)	(-12,1)	(5,1)	(1,1)	(-15,1)	(-34,1)	(-55,1)	(-42,1)	(-41,2)	(-13,1)	
L2C 45>	(1,2)	(-35,2)	(-54,1)	(-34,1)	(-1,4)	(-18,1)	(-11,1)	(-50,1)	(-46,3)	(-30,1)	(-40,1)	(-45,1)	(-55,1)	(-31,1)	(5,1)	(-13,1)	
L2C 46>	(-39,3)	(1,5)	(-20,1)	(-55,2)	(-14,2)	(-37,1)	(-17,1)	(-48,1)	(-45,1)	(-34,1)	(-8,1)	(-1,1)	(-13,1)	(-19,1)	(0,2)	(4,1)	
L2C 47>	(-26,1)	(2,1)	(1,5)	(-20,1)	(-1,11)	(-4,2)	(-48,1)	(-46,1)	(-39,1)	(-23,1)	(-37,1)	(1,0)	(1,0)	(1,0)	(1,0)	(1,0)	
L2C 48>	(0,1)	(-1,12)	(-2,4)	(-44,1)	(-4,2)	(-15,1)	(-45,1)	(-42,2)	(-55,1)	(-30,1)	(1,0)	(1,0)	(1,0)	(1,0)	(1,0)	(1,0)	
L2C 49>	(-1,4)	(-50,1)	(-54,1)	(1,1)	(4,1)	(-33,1)	(-4,1)	(-27,1)	(-48,2)	(-51,1)	(-55,1)	(-9,1)	(1,0)	(1,0)	(1,0)	(1,0)	
L2C 50>	(-1,3)	(-50,2)	(-4,1)	(-17,1)	(-49,2)	(-55,1)	(-19,1)	(-47,1)	(-22,1)	(1,1)	(-12,1)	(-9,1)	(-48,1)	(-15,1)	(1,0)	(1,0)	
L2C 51>	(-1,2)	(-17,1)	(-33,1)	(0,2)	(-37,1)	(-22,1)	(-41,1)	(1,1)	(-47,1)	(-27,1)	(-49,2)	(-51,2)	(-31,1)	(-50,1)	(-15,1)	(8,1)	
L2C 52>	(1,1)	(-1,2)	(-27,2)	(-5,1)	(-43,1)	(-15,1)	(-51,1)	(-61,1)	(-56,1)	(-42,1)	(-53,1)	(1,0)	(1,0)	(1,0)	(1,0)	(1,0)	
L2C 53>	(-15,1)	(-44,1)	(-1,1)	(1,1)	(-4,2)	(-51,1)	(-25,1)	(-10,1)	(-35,1)	(-53,2)	(-52,2)	(1,0)	(1,0)	(1,0)	(1,0)	(1,0)	
L2C 54>	(1,2)	(-1,1)	(-53,1)	(-49,1)	(-25,1)	(-50,1)	(-29,1)	(-27,1)	(1,0)	(1,0)	(1,0)	(1,0)	(1,0)	(1,0)	(1,0)	(1,0)	
L2C 55>	(3,2)	(-1,1)	(-48,1)	(-50,1)	(-33,1)	(-44,1)	(-53,1)	(-39,1)	(-18,1)	(1,1)	(-23,1)	(-29,1)	(-17,1)	(-19,1)	(1,0)	(1,0)	
L2C 56>	(1,2)	(-1,7)	(-53,10)	(1,0)	(1,0)	(1,0)	(1,0)	(1,0)	(1,0)	(1,0)	(1,0)	(1,0)	(1,0)	(1,0)	(1,0)	(1,0)	
L2C 57>	(1,7)	(-18,1)	(-52,1)	(-38,1)	(-50,1)	(-9,1)	(1,0)	(1,0)	(1,0)	(1,0)	(1,0)	(1,0)	(1,0)	(1,0)	(1,0)	(1,0)	
L2C 58>	(-23,1)	(-49,1)	(1,0)	(1,0)	(1,0)	(1,0)	(1,0)	(1,0)	(1,0)	(1,0)	(1,0)	(1,0)	(1,0)	(1,0)	(1,0)	(1,0)	
L2C 59>	(1,1)	(-48,1)	(-41,1)	(-51,1)	(-18,1)	(1,0)	(1,0)	(1,0)	(1,0)	(1,0)	(1,0)	(1,0)	(1,0)	(1,0)	(1,0)	(1,0)	
L2C 60>	(-4,4)	(-23,1)	(-2,2)	(-59,1)	(1,0)	(1,0)	(1,0)	(1,0)	(1,0)	(1,0)	(1,0)	(1,0)	(1,0)	(1,0)	(1,0)	(1,0)	
L2C 61>	(1,2)	(1,0)	(1,0)	(1,0)	(1,0)	(1,0)	(1,0)	(1,0)	(1,0)	(1,0)	(1,0)	(1,0)	(1,0)	(1,0)	(1,0)	(1,0)	
L2C 62>	(1,0)	(1,0)	(1,0)	(1,0)	(1,0)	(1,0)	(1,0)	(1,0)	(1,0)	(1,0)	(1,0)	(1,0)	(1,0)	(1,0)	(1,0)	(1,0)	
L2C 63>	(1,0)	(1,0)	(1,0)	(1,0)	(1,0)	(1,0)	(1,0)	(1,0)	(1,0)	(1,0)	(1,0)	(1,0)	(1,0)	(1,0)	(1,0)	(1,0)	

DRAM Statistics
 CHANNEL 0
 RQ ROW_BUFFER_HIT:       2326  ROW_BUFFER_MISS:       2345
 DBUS_CONGESTED:       3484
 WQ ROW_BUFFER_HIT:          0  ROW_BUFFER_MISS:          0  FULL:          0

 AVG_CONGESTED_CYCLE: 6
