
*** ChampSim Multicore Out-of-Order Simulator ***

Warmup Instructions: 1000000
Simulation Instructions: 10000000
Number of CPUs: 1
LLC sets: 2048
LLC ways: 16
Off-chip DRAM Size: 4096 MB Channels: 1 Width: 64-bit Data Rate: 3200 MT/s

CPU 0 runs /home/virtualcse/Data-Prefetching/ChampSim/dpc3_traces/641.leela_s-149B.champsimtrace.xz
Ultra pref. initializing...
Ultra pref. initialized
Ultra pref. initializing...
Ultra pref. initialized

Warmup complete CPU 0 instructions: 1000002 cycles: 403558 (Simulation time: 0 hr 0 min 2 sec) 

Heartbeat CPU 0 instructions: 10000000 cycles: 9876652 heartbeat IPC: 1.01249 cumulative IPC: 0.950059 (Simulation time: 0 hr 0 min 15 sec) 
Finished CPU 0 instructions: 10000002 cycles: 10507831 cumulative IPC: 0.951671 (Simulation time: 0 hr 0 min 16 sec) 

CPU 0 Branch Prediction Accuracy: 85.7217% MPKI: 15.5822 Average ROB Occupancy at Mispredict: 28.8789

ChampSim completed all CPUs

Region of Interest Statistics

CPU 0 cumulative IPC: 0.951671 instructions: 10000002 cycles: 10507831
L1D TOTAL     ACCESS:    5500977  HIT:    5406448  MISS:      94529
L1D LOAD      ACCESS:    1713207  HIT:    1686500  MISS:      26707
L1D RFO       ACCESS:    1064059  HIT:    1056899  MISS:       7160
L1D PREFETCH  ACCESS:    2723711  HIT:    2663049  MISS:      60662
L1D WRITEBACK ACCESS:          0  HIT:          0  MISS:          0
L1D PREFETCH  REQUESTED:   22867862  ISSUED:   20645768  USEFUL:      31185  USELESS:      34817
L1D AVERAGE MISS LATENCY: 17.793 cycles
L1I TOTAL     ACCESS:     902180  HIT:     900085  MISS:       2095
L1I LOAD      ACCESS:     902180  HIT:     900085  MISS:       2095
L1I RFO       ACCESS:          0  HIT:          0  MISS:          0
L1I PREFETCH  ACCESS:          0  HIT:          0  MISS:          0
L1I WRITEBACK ACCESS:          0  HIT:          0  MISS:          0
L1I PREFETCH  REQUESTED:          0  ISSUED:          0  USEFUL:          0  USELESS:          0
L1I AVERAGE MISS LATENCY: 13.9771 cycles
L2C TOTAL     ACCESS:     566921  HIT:     558390  MISS:       8531
L2C LOAD      ACCESS:      28126  HIT:      27575  MISS:        551
L2C RFO       ACCESS:       7006  HIT:       6998  MISS:          8
L2C PREFETCH  ACCESS:     512565  HIT:     504594  MISS:       7971
L2C WRITEBACK ACCESS:      19224  HIT:      19223  MISS:          1
L2C PREFETCH  REQUESTED:    1511539  ISSUED:     934354  USEFUL:       1907  USELESS:       7006
L2C AVERAGE MISS LATENCY: 131.159 cycles
LLC TOTAL     ACCESS:       8623  HIT:       4061  MISS:       4562
LLC LOAD      ACCESS:        548  HIT:        268  MISS:        280
LLC RFO       ACCESS:          8  HIT:          5  MISS:          3
LLC PREFETCH  ACCESS:       7974  HIT:       3695  MISS:       4279
LLC WRITEBACK ACCESS:         93  HIT:         93  MISS:          0
LLC PREFETCH  REQUESTED:          0  ISSUED:          0  USEFUL:        141  USELESS:          0
LLC AVERAGE MISS LATENCY: 189.229 cycles
Major fault: 0 Minor fault: 340

L1D -512>	(-72,1)	(1,5)	(-2,3)	(-1,13)	(-3,1)	(0,89)	(-152,1)	(-8,1)	(16,1)	(-108,1)	(-139,0)	(-13,0)	(119,0)	(-16,1)	(120,1)	(51,0)	
L1D -511>	(1,45)	(1,0)	(1,0)	(1,0)	(1,0)	(1,0)	(1,0)	(1,0)	(1,0)	(1,0)	(1,0)	(1,0)	(1,0)	(1,0)	(1,0)	(1,0)	
L1D -510>	(1,0)	(1,0)	(1,0)	(1,0)	(1,0)	(1,0)	(1,0)	(1,0)	(1,0)	(1,0)	(1,0)	(1,0)	(1,0)	(1,0)	(1,0)	(1,0)	
L1D -509>	(1,0)	(1,0)	(1,0)	(1,0)	(1,0)	(1,0)	(1,0)	(1,0)	(1,0)	(1,0)	(1,0)	(1,0)	(1,0)	(1,0)	(1,0)	(1,0)	
L1D -508>	(1,0)	(1,0)	(1,0)	(1,0)	(1,0)	(1,0)	(1,0)	(1,0)	(1,0)	(1,0)	(1,0)	(1,0)	(1,0)	(1,0)	(1,0)	(1,0)	
L1D -507>	(1,0)	(1,0)	(1,0)	(1,0)	(1,0)	(1,0)	(1,0)	(1,0)	(1,0)	(1,0)	(1,0)	(1,0)	(1,0)	(1,0)	(1,0)	(1,0)	
L1D -506>	(1,0)	(1,0)	(1,0)	(1,0)	(1,0)	(1,0)	(1,0)	(1,0)	(1,0)	(1,0)	(1,0)	(1,0)	(1,0)	(1,0)	(1,0)	(1,0)	
L1D -505>	(1,0)	(1,0)	(1,0)	(1,0)	(1,0)	(1,0)	(1,0)	(1,0)	(1,0)	(1,0)	(1,0)	(1,0)	(1,0)	(1,0)	(1,0)	(1,0)	
L1D -504>	(1,0)	(1,0)	(1,0)	(1,0)	(1,0)	(1,0)	(1,0)	(1,0)	(1,0)	(1,0)	(1,0)	(1,0)	(1,0)	(1,0)	(1,0)	(1,0)	
L1D -503>	(1,0)	(1,0)	(1,0)	(1,0)	(1,0)	(1,0)	(1,0)	(1,0)	(1,0)	(1,0)	(1,0)	(1,0)	(1,0)	(1,0)	(1,0)	(1,0)	
L1D -502>	(1,0)	(1,0)	(1,0)	(1,0)	(1,0)	(1,0)	(1,0)	(1,0)	(1,0)	(1,0)	(1,0)	(1,0)	(1,0)	(1,0)	(1,0)	(1,0)	
L1D -501>	(1,0)	(1,0)	(1,0)	(1,0)	(1,0)	(1,0)	(1,0)	(1,0)	(1,0)	(1,0)	(1,0)	(1,0)	(1,0)	(1,0)	(1,0)	(1,0)	
L1D -500>	(1,0)	(1,0)	(1,0)	(1,0)	(1,0)	(1,0)	(1,0)	(1,0)	(1,0)	(1,0)	(1,0)	(1,0)	(1,0)	(1,0)	(1,0)	(1,0)	
L1D -499>	(1,0)	(1,0)	(1,0)	(1,0)	(1,0)	(1,0)	(1,0)	(1,0)	(1,0)	(1,0)	(1,0)	(1,0)	(1,0)	(1,0)	(1,0)	(1,0)	
L1D -498>	(1,0)	(1,0)	(1,0)	(1,0)	(1,0)	(1,0)	(1,0)	(1,0)	(1,0)	(1,0)	(1,0)	(1,0)	(1,0)	(1,0)	(1,0)	(1,0)	
L1D -497>	(492,43)	(-1,3)	(1,0)	(1,0)	(1,0)	(1,0)	(1,0)	(1,0)	(1,0)	(1,0)	(1,0)	(1,0)	(1,0)	(1,0)	(1,0)	(1,0)	
L1D -496>	(1,0)	(1,0)	(1,0)	(1,0)	(1,0)	(1,0)	(1,0)	(1,0)	(1,0)	(1,0)	(1,0)	(1,0)	(1,0)	(1,0)	(1,0)	(1,0)	
L1D -495>	(0,3)	(-1,44)	(1,0)	(1,0)	(1,0)	(1,0)	(1,0)	(1,0)	(1,0)	(1,0)	(1,0)	(1,0)	(1,0)	(1,0)	(1,0)	(1,0)	
L1D -494>	(1,0)	(1,0)	(1,0)	(1,0)	(1,0)	(1,0)	(1,0)	(1,0)	(1,0)	(1,0)	(1,0)	(1,0)	(1,0)	(1,0)	(1,0)	(1,0)	
L1D -493>	(1,0)	(1,0)	(1,0)	(1,0)	(1,0)	(1,0)	(1,0)	(1,0)	(1,0)	(1,0)	(1,0)	(1,0)	(1,0)	(1,0)	(1,0)	(1,0)	
L1D -492>	(1,0)	(1,0)	(1,0)	(1,0)	(1,0)	(1,0)	(1,0)	(1,0)	(1,0)	(1,0)	(1,0)	(1,0)	(1,0)	(1,0)	(1,0)	(1,0)	
L1D -491>	(1,0)	(1,0)	(1,0)	(1,0)	(1,0)	(1,0)	(1,0)	(1,0)	(1,0)	(1,0)	(1,0)	(1,0)	(1,0)	(1,0)	(1,0)	(1,0)	
L1D -490>	(1,0)	(1,0)	(1,0)	(1,0)	(1,0)	(1,0)	(1,0)	(1,0)	(1,0)	(1,0)	(1,0)	(1,0)	(1,0)	(1,0)	(1,0)	(1,0)	
L1D -489>	(1,0)	(1,0)	(1,0)	(1,0)	(1,0)	(1,0)	(1,0)	(1,0)	(1,0)	(1,0)	(1,0)	(1,0)	(1,0)	(1,0)	(1,0)	(1,0)	
L1D -488>	(1,0)	(1,0)	(1,0)	(1,0)	(1,0)	(1,0)	(1,0)	(1,0)	(1,0)	(1,0)	(1,0)	(1,0)	(1,0)	(1,0)	(1,0)	(1,0)	
L1D -487>	(1,0)	(1,0)	(1,0)	(1,0)	(1,0)	(1,0)	(1,0)	(1,0)	(1,0)	(1,0)	(1,0)	(1,0)	(1,0)	(1,0)	(1,0)	(1,0)	
L1D -486>	(1,0)	(1,0)	(1,0)	(1,0)	(1,0)	(1,0)	(1,0)	(1,0)	(1,0)	(1,0)	(1,0)	(1,0)	(1,0)	(1,0)	(1,0)	(1,0)	
L1D -485>	(1,0)	(1,0)	(1,0)	(1,0)	(1,0)	(1,0)	(1,0)	(1,0)	(1,0)	(1,0)	(1,0)	(1,0)	(1,0)	(1,0)	(1,0)	(1,0)	
L1D -484>	(1,0)	(1,0)	(1,0)	(1,0)	(1,0)	(1,0)	(1,0)	(1,0)	(1,0)	(1,0)	(1,0)	(1,0)	(1,0)	(1,0)	(1,0)	(1,0)	
L1D -483>	(1,0)	(1,0)	(1,0)	(1,0)	(1,0)	(1,0)	(1,0)	(1,0)	(1,0)	(1,0)	(1,0)	(1,0)	(1,0)	(1,0)	(1,0)	(1,0)	
L1D -482>	(1,0)	(1,0)	(1,0)	(1,0)	(1,0)	(1,0)	(1,0)	(1,0)	(1,0)	(1,0)	(1,0)	(1,0)	(1,0)	(1,0)	(1,0)	(1,0)	
L1D -481>	(1,0)	(1,0)	(1,0)	(1,0)	(1,0)	(1,0)	(1,0)	(1,0)	(1,0)	(1,0)	(1,0)	(1,0)	(1,0)	(1,0)	(1,0)	(1,0)	
L1D -480>	(1,0)	(1,0)	(1,0)	(1,0)	(1,0)	(1,0)	(1,0)	(1,0)	(1,0)	(1,0)	(1,0)	(1,0)	(1,0)	(1,0)	(1,0)	(1,0)	
L1D -479>	(1,0)	(1,0)	(1,0)	(1,0)	(1,0)	(1,0)	(1,0)	(1,0)	(1,0)	(1,0)	(1,0)	(1,0)	(1,0)	(1,0)	(1,0)	(1,0)	
L1D -478>	(1,0)	(1,0)	(1,0)	(1,0)	(1,0)	(1,0)	(1,0)	(1,0)	(1,0)	(1,0)	(1,0)	(1,0)	(1,0)	(1,0)	(1,0)	(1,0)	
L1D -477>	(0,2)	(302,1)	(1,0)	(1,0)	(1,0)	(1,0)	(1,0)	(1,0)	(1,0)	(1,0)	(1,0)	(1,0)	(1,0)	(1,0)	(1,0)	(1,0)	
L1D -476>	(0,1)	(444,1)	(1,0)	(1,0)	(1,0)	(1,0)	(1,0)	(1,0)	(1,0)	(1,0)	(1,0)	(1,0)	(1,0)	(1,0)	(1,0)	(1,0)	
L1D -475>	(0,1)	(78,1)	(15,2)	(443,1)	(1,0)	(1,0)	(1,0)	(1,0)	(1,0)	(1,0)	(1,0)	(1,0)	(1,0)	(1,0)	(1,0)	(1,0)	
L1D -474>	(0,1)	(1,0)	(1,0)	(1,0)	(1,0)	(1,0)	(1,0)	(1,0)	(1,0)	(1,0)	(1,0)	(1,0)	(1,0)	(1,0)	(1,0)	(1,0)	
L1D -473>	(340,1)	(36,1)	(302,1)	(0,1)	(321,1)	(1,0)	(1,0)	(1,0)	(1,0)	(1,0)	(1,0)	(1,0)	(1,0)	(1,0)	(1,0)	(1,0)	
L1D -472>	(174,1)	(473,1)	(128,1)	(132,1)	(475,1)	(1,0)	(1,0)	(1,0)	(1,0)	(1,0)	(1,0)	(1,0)	(1,0)	(1,0)	(1,0)	(1,0)	
L1D -471>	(284,1)	(471,1)	(0,1)	(1,0)	(1,0)	(1,0)	(1,0)	(1,0)	(1,0)	(1,0)	(1,0)	(1,0)	(1,0)	(1,0)	(1,0)	(1,0)	
L1D -470>	(359,12)	(1,41)	(356,2)	(316,1)	(351,2)	(0,3)	(354,15)	(357,6)	(360,2)	(441,1)	(362,2)	(249,2)	(1,0)	(1,0)	(1,0)	(1,0)	
L1D -469>	(0,108)	(358,1)	(1,53)	(461,1)	(26,1)	(350,3)	(59,36)	(55,1)	(359,10)	(249,1)	(54,6)	(353,17)	(454,1)	(355,1)	(466,1)	(248,3)	
L1D -468>	(0,106)	(358,3)	(1,20)	(245,1)	(355,3)	(465,1)	(46,1)	(462,3)	(350,0)	(460,2)	(6,0)	(57,0)	(47,0)	(458,0)	(452,1)	(349,1)	
L1D -467>	(354,2)	(357,14)	(0,61)	(345,3)	(1,78)	(351,10)	(459,2)	(44,1)	(353,2)	(25,1)	(343,3)	(340,1)	(453,1)	(358,1)	(348,1)	(456,2)	
L1D -466>	(0,84)	(1,38)	(466,4)	(460,1)	(355,4)	(49,1)	(462,1)	(451,2)	(350,3)	(48,1)	(9,1)	(354,2)	(19,1)	(16,1)	(360,1)	(342,1)	
L1D -465>	(0,122)	(354,3)	(352,2)	(459,6)	(40,3)	(348,2)	(1,20)	(456,2)	(6,1)	(51,1)	(355,3)	(12,1)	(349,2)	(341,1)	(339,3)	(48,1)	
L1D -464>	(1,57)	(0,74)	(19,4)	(46,2)	(464,8)	(358,4)	(336,2)	(345,2)	(32,2)	(462,2)	(354,7)	(56,1)	(13,1)	(349,3)	(11,1)	(347,1)	
L1D -463>	(350,15)	(0,63)	(1,109)	(43,2)	(55,2)	(463,3)	(361,1)	(353,20)	(354,6)	(344,6)	(352,9)	(347,23)	(249,1)	(357,1)	(18,1)	(32,1)	
L1D -462>	(0,126)	(349,6)	(346,10)	(351,6)	(462,25)	(450,1)	(30,3)	(36,4)	(14,3)	(339,2)	(1,20)	(48,4)	(19,3)	(40,2)	(23,3)	(342,2)	
L1D -461>	(1,54)	(346,1)	(459,2)	(347,1)	(0,65)	(19,2)	(12,3)	(17,2)	(345,8)	(357,4)	(350,1)	(354,7)	(348,9)	(356,4)	(461,3)	(351,9)	
L1D -460>	(0,113)	(1,86)	(344,9)	(347,11)	(240,3)	(460,18)	(350,8)	(456,1)	(341,4)	(10,2)	(342,4)	(353,5)	(354,3)	(40,3)	(450,3)	(458,2)	
L1D -459>	(345,2)	(14,1)	(348,10)	(43,2)	(459,17)	(343,5)	(51,3)	(347,1)	(1,26)	(32,1)	(0,93)	(349,3)	(341,1)	(351,7)	(6,1)	(339,3)	
L1D -458>	(0,68)	(1,43)	(6,4)	(342,10)	(460,3)	(452,1)	(347,4)	(52,2)	(54,1)	(348,4)	(335,2)	(340,1)	(12,2)	(345,1)	(343,2)	(11,2)	
L1D -457>	(346,4)	(1,18)	(6,7)	(24,1)	(0,71)	(341,4)	(351,1)	(343,1)	(354,1)	(342,2)	(40,1)	(58,1)	(50,2)	(451,1)	(452,1)	(457,4)	
L1D -456>	(0,87)	(6,13)	(340,4)	(448,1)	(346,3)	(46,1)	(34,2)	(1,34)	(341,3)	(462,5)	(343,1)	(329,3)	(331,1)	(11,3)	(445,1)	(13,1)	
L1D -455>	(0,96)	(1,115)	(359,2)	(345,11)	(339,5)	(342,4)	(333,3)	(328,5)	(6,12)	(7,2)	(11,2)	(344,3)	(24,3)	(29,3)	(460,1)	(8,1)	
L1D -454>	(0,89)	(340,2)	(346,2)	(451,3)	(9,3)	(356,2)	(53,2)	(19,5)	(-1,1)	(1,40)	(344,4)	(6,7)	(341,3)	(338,5)	(-10,1)	(-5,2)	
L1D -453>	(0,32)	(340,10)	(235,1)	(343,11)	(1,110)	(342,6)	(334,2)	(9,1)	(333,2)	(348,5)	(337,7)	(346,5)	(357,2)	(335,5)	(232,2)	(345,3)	
L1D -452>	(35,1)	(452,7)	(0,69)	(332,2)	(1,22)	(347,2)	(335,3)	(50,1)	(13,2)	(40,2)	(350,2)	(342,3)	(333,1)	(349,1)	(45,1)	(345,1)	
L1D -451>	(349,2)	(1,18)	(0,77)	(340,4)	(9,1)	(6,11)	(43,1)	(354,2)	(51,1)	(351,2)	(37,1)	(42,2)	(13,1)	(343,3)	(335,1)	(451,10)	
L1D -450>	(1,106)	(450,4)	(-5,5)	(340,14)	(28,3)	(0,102)	(11,5)	(-6,2)	(6,30)	(328,7)	(44,2)	(348,3)	(5,5)	(45,2)	(334,3)	(9,1)	
L1D -449>	(1,24)	(0,90)	(449,10)	(6,16)	(339,7)	(325,4)	(-5,2)	(332,2)	(11,4)	(-12,13)	(350,2)	(330,1)	(-6,1)	(457,1)	(217,1)	(333,2)	
L1D -448>	(1,119)	(6,70)	(324,8)	(0,84)	(-11,6)	(335,2)	(329,1)	(214,2)	(58,1)	(352,1)	(355,1)	(341,1)	(11,4)	(327,6)	(332,2)	(337,3)	
L1D -447>	(0,79)	(1,59)	(447,9)	(6,27)	(325,5)	(328,2)	(5,3)	(226,2)	(11,3)	(41,1)	(-11,1)	(337,1)	(12,1)	(338,1)	(25,1)	(21,1)	
L1D -446>	(332,3)	(6,16)	(446,9)	(1,28)	(0,91)	(-14,4)	(325,8)	(-12,8)	(-11,10)	(435,2)	(324,4)	(15,2)	(328,3)	(-5,1)	(350,6)	(12,1)	
L1D -445>	(5,7)	(-5,23)	(6,73)	(1,20)	(328,27)	(-6,17)	(0,52)	(329,9)	(325,6)	(-11,28)	(324,11)	(11,2)	(321,4)	(-8,4)	(-12,27)	(318,3)	
L1D -444>	(1,24)	(6,94)	(327,26)	(328,10)	(325,8)	(5,10)	(331,20)	(-5,26)	(-6,1)	(322,10)	(11,10)	(324,11)	(-11,23)	(-12,5)	(438,2)	(2,15)	
L1D -443>	(0,6)	(1,36)	(6,92)	(5,11)	(327,51)	(-12,4)	(216,7)	(322,3)	(-11,3)	(323,7)	(330,1)	(-6,9)	(-5,27)	(443,3)	(324,3)	(444,2)	
L1D -442>	(329,1)	(6,104)	(11,11)	(328,15)	(-7,1)	(1,26)	(443,1)	(-5,17)	(5,12)	(325,3)	(326,21)	(4,2)	(0,2)	(-12,2)	(-6,11)	(-11,4)	
L1D -441>	(1,52)	(325,10)	(327,48)	(6,75)	(322,12)	(-12,16)	(439,1)	(328,18)	(5,32)	(-9,6)	(-11,6)	(220,6)	(323,8)	(-6,20)	(326,16)	(-5,28)	
L1D -440>	(-5,1)	(-11,11)	(326,86)	(324,11)	(6,64)	(1,53)	(322,14)	(430,3)	(-12,7)	(327,11)	(11,11)	(0,26)	(4,4)	(-6,11)	(328,5)	(5,17)	
L1D -439>	(5,44)	(328,17)	(1,50)	(212,7)	(325,107)	(0,10)	(-12,46)	(320,11)	(6,89)	(-6,36)	(321,14)	(-13,36)	(322,10)	(-5,61)	(-14,4)	(-11,60)	
L1D -438>	(1,51)	(6,68)	(0,28)	(5,43)	(324,108)	(322,12)	(327,64)	(319,26)	(11,11)	(325,64)	(328,40)	(-5,2)	(-25,3)	(-12,48)	(-11,56)	(-6,42)	
L1D -437>	(1,21)	(325,7)	(327,20)	(7,1)	(0,8)	(321,16)	(-12,11)	(324,70)	(318,10)	(5,18)	(-16,12)	(323,37)	(4,7)	(6,61)	(-11,29)	(326,41)	
L1D -436>	(1,16)	(322,31)	(-12,40)	(5,44)	(6,71)	(326,10)	(323,62)	(321,8)	(-6,16)	(325,31)	(0,7)	(-11,49)	(-5,1)	(320,6)	(431,4)	(318,4)	
L1D -435>	(6,73)	(1,39)	(319,32)	(322,39)	(-12,91)	(4,9)	(324,91)	(0,15)	(-6,51)	(209,8)	(-11,47)	(-16,1)	(325,24)	(-25,6)	(5,37)	(435,27)	
L1D -434>	(1,48)	(318,50)	(434,47)	(-6,43)	(-11,56)	(321,45)	(6,63)	(-12,67)	(319,10)	(426,1)	(323,80)	(0,9)	(-5,16)	(324,19)	(325,20)	(-14,7)	
L1D -433>	(318,5)	(1,39)	(317,13)	(323,9)	(207,1)	(-19,24)	(322,76)	(-24,7)	(6,42)	(320,26)	(-11,50)	(-12,32)	(325,70)	(-6,28)	(433,9)	(319,23)	
L1D -432>	(316,20)	(-20,26)	(319,58)	(1,34)	(5,36)	(6,63)	(0,6)	(321,65)	(324,115)	(-15,7)	(-12,34)	(-6,61)	(-5,2)	(325,20)	(-11,54)	(432,24)	
L1D -431>	(315,7)	(321,90)	(317,9)	(0,9)	(1,27)	(6,62)	(4,3)	(324,31)	(-12,23)	(10,1)	(-22,8)	(323,49)	(320,21)	(318,48)	(-11,36)	(431,25)	
L1D -430>	(0,7)	(316,8)	(314,5)	(6,27)	(1,9)	(5,31)	(320,46)	(-11,22)	(323,17)	(322,22)	(-30,4)	(-5,1)	(-12,65)	(317,25)	(319,28)	(430,8)	
L1D -429>	(0,10)	(-6,36)	(6,47)	(322,46)	(429,11)	(1,20)	(316,22)	(-12,40)	(319,49)	(315,47)	(5,54)	(313,27)	(423,23)	(-11,1)	(321,92)	(-5,6)	
L1D -428>	(1,30)	(0,6)	(317,17)	(318,41)	(314,55)	(315,36)	(6,82)	(-11,46)	(319,29)	(433,1)	(312,22)	(-6,41)	(320,79)	(321,7)	(-1,7)	(-12,38)	
L1D -427>	(6,32)	(427,23)	(316,33)	(314,55)	(322,4)	(1,7)	(319,124)	(5,35)	(-12,15)	(-11,40)	(313,5)	(429,8)	(315,1)	(317,14)	(-5,10)	(-6,29)	
L1D -426>	(1,27)	(313,50)	(-11,46)	(315,71)	(430,8)	(310,20)	(316,38)	(318,108)	(434,1)	(0,12)	(-12,57)	(5,36)	(-32,13)	(6,30)	(319,31)	(421,44)	
L1D -425>	(1,40)	(314,63)	(0,20)	(-28,58)	(321,15)	(6,68)	(-23,46)	(319,9)	(315,47)	(-11,97)	(317,104)	(5,105)	(-12,93)	(318,112)	(312,91)	(309,1)	
L1D -424>	(310,23)	(0,8)	(319,11)	(4,1)	(313,45)	(-12,51)	(1,20)	(317,26)	(316,68)	(312,5)	(5,24)	(314,52)	(311,36)	(-11,15)	(320,3)	(308,10)	
L1D -423>	(6,65)	(0,8)	(313,99)	(316,38)	(315,33)	(1,48)	(5,21)	(312,74)	(318,1)	(310,48)	(307,12)	(-11,62)	(317,16)	(-6,29)	(420,16)	(-12,36)	
L1D -422>	(-11,79)	(1,42)	(317,72)	(314,50)	(316,1)	(0,27)	(-12,39)	(-30,22)	(6,61)	(315,41)	(308,54)	(427,13)	(312,22)	(311,86)	(309,33)	(-6,46)	
L1D -421>	(310,9)	(316,39)	(313,67)	(-11,22)	(-31,6)	(307,15)	(314,27)	(1,5)	(311,56)	(0,3)	(-6,21)	(308,15)	(6,34)	(415,2)	(419,7)	(421,23)	
L1D -420>	(307,30)	(6,105)	(1,15)	(315,68)	(312,64)	(318,5)	(415,9)	(310,27)	(313,19)	(5,29)	(-6,18)	(309,1)	(-11,71)	(426,9)	(0,7)	(-12,32)	
L1D -419>	(311,99)	(1,22)	(0,7)	(312,46)	(-12,23)	(419,26)	(5,38)	(310,9)	(309,54)	(-6,29)	(-11,57)	(413,7)	(6,1)	(422,6)	(308,58)	(-34,23)	
L1D -418>	(0,11)	(310,75)	(308,36)	(-6,12)	(311,45)	(1,23)	(313,15)	(-12,60)	(6,16)	(5,37)	(316,2)	(-5,1)	(-11,23)	(418,22)	(307,31)	(315,4)	
L1D -417>	(310,50)	(414,7)	(307,37)	(5,34)	(1,14)	(309,71)	(314,7)	(417,1)	(-12,7)	(-11,30)	(-50,2)	(6,16)	(0,5)	(311,6)	(304,38)	(306,7)	
L1D -416>	(308,105)	(408,5)	(303,10)	(5,26)	(1,30)	(311,25)	(306,17)	(-11,34)	(-12,37)	(416,55)	(309,7)	(413,17)	(304,32)	(6,6)	(410,1)	(305,27)	
L1D -415>	(0,4)	(304,28)	(412,4)	(307,40)	(1,5)	(6,1)	(308,74)	(406,10)	(313,13)	(311,5)	(-12,13)	(310,12)	(5,12)	(-6,16)	(-11,28)	(305,15)	
L1D -414>	(0,17)	(306,110)	(1,18)	(307,33)	(-12,46)	(6,33)	(304,35)	(-11,72)	(311,11)	(5,87)	(309,31)	(414,1)	(312,58)	(-49,5)	(-6,38)	(411,30)	
L1D -413>	(305,106)	(-12,29)	(-6,26)	(-11,15)	(306,63)	(5,31)	(300,15)	(311,9)	(413,1)	(308,27)	(1,8)	(307,17)	(6,13)	(312,3)	(-40,2)	(-50,3)	
L1D -412>	(304,78)	(305,23)	(-11,13)	(6,11)	(1,17)	(0,4)	(-50,5)	(307,38)	(412,30)	(-12,12)	(301,6)	(-6,15)	(311,4)	(303,3)	(-5,2)	(5,8)	
L1D -411>	(-56,16)	(304,115)	(0,13)	(-6,77)	(303,85)	(1,9)	(5,63)	(307,45)	(306,29)	(412,29)	(6,15)	(-11,100)	(-50,7)	(-1,1)	(-12,28)	(311,8)	
L1D -410>	(302,35)	(305,81)	(-12,19)	(-11,24)	(296,1)	(6,5)	(308,15)	(0,23)	(401,4)	(1,16)	(310,8)	(311,13)	(4,3)	(402,4)	(5,10)	(-6,14)	
L1D -409>	(-6,21)	(301,20)	(296,1)	(406,29)	(-12,42)	(310,22)	(304,27)	(307,5)	(305,75)	(-61,17)	(299,36)	(-11,110)	(1,11)	(415,22)	(-1,10)	(393,4)	
L1D -408>	(405,12)	(-12,107)	(-58,31)	(-56,13)	(0,15)	(303,9)	(1,19)	(306,19)	(309,12)	(-11,45)	(6,1)	(-57,17)	(312,12)	(-6,10)	(5,28)	(305,5)	
L1D -407>	(-12,106)	(-58,2)	(0,2)	(5,7)	(1,6)	(305,38)	(308,2)	(302,16)	(311,2)	(-11,16)	(309,5)	(-6,11)	(-59,1)	(-1,1)	(288,4)	(407,2)	
L1D -406>	(-11,38)	(1,9)	(309,4)	(303,21)	(304,76)	(6,10)	(5,6)	(-5,6)	(-12,21)	(301,5)	(-6,11)	(306,7)	(305,3)	(414,34)	(412,1)	(188,3)	
L1D -405>	(311,6)	(1,8)	(-11,53)	(305,4)	(303,35)	(308,11)	(-12,68)	(304,57)	(-6,41)	(286,1)	(-58,7)	(-57,4)	(405,4)	(-56,12)	(306,5)	(0,2)	
L1D -404>	(7,8)	(5,9)	(-12,24)	(1,10)	(6,8)	(307,16)	(404,1)	(310,3)	(-11,5)	(-6,6)	(302,1)	(-5,2)	(304,9)	(305,11)	(-1,4)	(308,8)	
L1D -403>	(-6,15)	(-12,68)	(6,15)	(306,4)	(-50,6)	(-11,29)	(310,4)	(307,21)	(403,4)	(417,3)	(300,3)	(5,4)	(303,6)	(304,15)	(412,9)	(-49,9)	
L1D -402>	(7,3)	(-11,19)	(305,10)	(309,10)	(0,4)	(411,2)	(-51,3)	(306,5)	(-45,3)	(5,17)	(303,3)	(-1,2)	(-6,2)	(-58,7)	(287,2)	(-12,37)	
L1D -401>	(5,5)	(-11,4)	(286,2)	(6,4)	(304,1)	(308,2)	(398,1)	(309,1)	(1,4)	(188,1)	(-12,26)	(400,1)	(0,1)	(-59,1)	(306,8)	(-6,3)	
L1D -400>	(303,11)	(410,2)	(-58,2)	(298,9)	(-12,14)	(1,12)	(411,3)	(308,2)	(0,3)	(-61,3)	(296,1)	(6,3)	(-11,46)	(300,2)	(-6,4)	(368,1)	
L1D -399>	(-11,5)	(-6,11)	(305,24)	(-12,14)	(-58,2)	(5,2)	(303,2)	(0,5)	(308,3)	(1,4)	(365,1)	(6,3)	(281,2)	(-7,1)	(402,1)	(296,1)	
L1D -398>	(281,2)	(1,4)	(-12,10)	(307,2)	(286,2)	(6,1)	(7,1)	(429,1)	(302,2)	(-6,6)	(-11,8)	(304,27)	(305,2)	(398,1)	(-1,1)	(5,2)	
L1D -397>	(-57,2)	(6,4)	(1,5)	(-11,20)	(-7,6)	(-56,2)	(304,29)	(283,3)	(-6,9)	(-1,1)	(410,2)	(5,2)	(202,1)	(303,5)	(-58,4)	(-12,5)	
L1D -396>	(282,4)	(53,1)	(306,1)	(402,1)	(394,1)	(4,1)	(-51,1)	(254,1)	(-7,1)	(-12,12)	(-11,2)	(291,1)	(459,1)	(303,1)	(398,1)	(320,1)	
L1D -395>	(1,2)	(306,2)	(263,1)	(7,1)	(-11,8)	(303,2)	(-12,6)	(-6,2)	(365,1)	(304,1)	(0,2)	(392,1)	(286,2)	(284,1)	(281,1)	(285,1)	
L1D -394>	(7,2)	(1,7)	(-57,3)	(-11,8)	(-12,11)	(0,2)	(-6,6)	(303,6)	(286,1)	(400,1)	(296,1)	(-58,3)	(176,1)	(390,1)	(304,9)	(-1,1)	
L1D -393>	(283,1)	(1,1)	(304,1)	(-11,5)	(-17,1)	(-12,4)	(-16,2)	(0,1)	(189,2)	(293,1)	(188,1)	(302,2)	(288,1)	(285,1)	(284,2)	(4,1)	
L1D -392>	(304,2)	(-61,3)	(-11,14)	(283,1)	(-16,1)	(1,1)	(188,1)	(296,2)	(-60,1)	(0,1)	(301,1)	(298,1)	(406,1)	(-8,1)	(-14,1)	(-19,1)	
L1D -391>	(-7,1)	(0,2)	(303,3)	(304,7)	(-12,1)	(392,1)	(-11,1)	(286,1)	(3,1)	(1,0)	(1,0)	(1,0)	(1,0)	(1,0)	(1,0)	(1,0)	
L1D -390>	(390,1)	(302,1)	(0,1)	(-11,2)	(1,1)	(287,1)	(286,1)	(284,2)	(3,1)	(283,2)	(1,0)	(1,0)	(1,0)	(1,0)	(1,0)	(1,0)	
L1D -389>	(303,2)	(-7,1)	(-11,3)	(-10,1)	(284,1)	(281,1)	(1,0)	(1,0)	(1,0)	(1,0)	(1,0)	(1,0)	(1,0)	(1,0)	(1,0)	(1,0)	
L1D -388>	(-7,1)	(-58,2)	(-59,1)	(1,2)	(0,1)	(189,1)	(302,1)	(-12,6)	(1,0)	(1,0)	(1,0)	(1,0)	(1,0)	(1,0)	(1,0)	(1,0)	
L1D -387>	(-60,3)	(302,2)	(-11,1)	(1,0)	(1,0)	(1,0)	(1,0)	(1,0)	(1,0)	(1,0)	(1,0)	(1,0)	(1,0)	(1,0)	(1,0)	(1,0)	
L1D -386>	(-11,5)	(-6,3)	(301,1)	(0,1)	(1,0)	(1,0)	(1,0)	(1,0)	(1,0)	(1,0)	(1,0)	(1,0)	(1,0)	(1,0)	(1,0)	(1,0)	
L1D -385>	(264,2)	(0,1)	(1,0)	(1,0)	(1,0)	(1,0)	(1,0)	(1,0)	(1,0)	(1,0)	(1,0)	(1,0)	(1,0)	(1,0)	(1,0)	(1,0)	
L1D -384>	(1,0)	(1,0)	(1,0)	(1,0)	(1,0)	(1,0)	(1,0)	(1,0)	(1,0)	(1,0)	(1,0)	(1,0)	(1,0)	(1,0)	(1,0)	(1,0)	
L1D -383>	(1,5)	(262,6)	(-32,1)	(1,0)	(1,0)	(1,0)	(1,0)	(1,0)	(1,0)	(1,0)	(1,0)	(1,0)	(1,0)	(1,0)	(1,0)	(1,0)	
L1D -382>	(-48,1)	(1,0)	(1,0)	(1,0)	(1,0)	(1,0)	(1,0)	(1,0)	(1,0)	(1,0)	(1,0)	(1,0)	(1,0)	(1,0)	(1,0)	(1,0)	
L1D -381>	(411,1)	(144,1)	(381,1)	(347,1)	(1,0)	(1,0)	(1,0)	(1,0)	(1,0)	(1,0)	(1,0)	(1,0)	(1,0)	(1,0)	(1,0)	(1,0)	
L1D -380>	(-1,9)	(0,1)	(349,1)	(1,0)	(1,0)	(1,0)	(1,0)	(1,0)	(1,0)	(1,0)	(1,0)	(1,0)	(1,0)	(1,0)	(1,0)	(1,0)	
L1D -379>	(76,1)	(375,1)	(1,0)	(1,0)	(1,0)	(1,0)	(1,0)	(1,0)	(1,0)	(1,0)	(1,0)	(1,0)	(1,0)	(1,0)	(1,0)	(1,0)	
L1D -378>	(259,1)	(0,3)	(-1,27)	(-3,29)	(2,3)	(378,1)	(181,1)	(-2,1)	(1,0)	(1,0)	(1,0)	(1,0)	(1,0)	(1,0)	(1,0)	(1,0)	
L1D -377>	(-1,7)	(0,2)	(210,1)	(205,1)	(1,0)	(1,0)	(1,0)	(1,0)	(1,0)	(1,0)	(1,0)	(1,0)	(1,0)	(1,0)	(1,0)	(1,0)	
L1D -376>	(0,2)	(-1,1)	(264,22)	(375,1)	(2,1)	(-3,1)	(1,0)	(1,0)	(1,0)	(1,0)	(1,0)	(1,0)	(1,0)	(1,0)	(1,0)	(1,0)	
L1D -375>	(0,2)	(-4,1)	(-3,11)	(375,2)	(-64,1)	(284,1)	(1,0)	(1,0)	(1,0)	(1,0)	(1,0)	(1,0)	(1,0)	(1,0)	(1,0)	(1,0)	
L1D -374>	(262,4)	(1,0)	(1,0)	(1,0)	(1,0)	(1,0)	(1,0)	(1,0)	(1,0)	(1,0)	(1,0)	(1,0)	(1,0)	(1,0)	(1,0)	(1,0)	
L1D -373>	(120,1)	(347,1)	(1,0)	(1,0)	(1,0)	(1,0)	(1,0)	(1,0)	(1,0)	(1,0)	(1,0)	(1,0)	(1,0)	(1,0)	(1,0)	(1,0)	
L1D -372>	(1,0)	(1,0)	(1,0)	(1,0)	(1,0)	(1,0)	(1,0)	(1,0)	(1,0)	(1,0)	(1,0)	(1,0)	(1,0)	(1,0)	(1,0)	(1,0)	
L1D -371>	(-3,1)	(-54,1)	(401,1)	(1,0)	(1,0)	(1,0)	(1,0)	(1,0)	(1,0)	(1,0)	(1,0)	(1,0)	(1,0)	(1,0)	(1,0)	(1,0)	
L1D -370>	(0,2)	(24,1)	(1,0)	(1,0)	(1,0)	(1,0)	(1,0)	(1,0)	(1,0)	(1,0)	(1,0)	(1,0)	(1,0)	(1,0)	(1,0)	(1,0)	
L1D -369>	(292,1)	(1,0)	(1,0)	(1,0)	(1,0)	(1,0)	(1,0)	(1,0)	(1,0)	(1,0)	(1,0)	(1,0)	(1,0)	(1,0)	(1,0)	(1,0)	
L1D -368>	(0,1)	(281,1)	(1,0)	(1,0)	(1,0)	(1,0)	(1,0)	(1,0)	(1,0)	(1,0)	(1,0)	(1,0)	(1,0)	(1,0)	(1,0)	(1,0)	
L1D -367>	(1,0)	(1,0)	(1,0)	(1,0)	(1,0)	(1,0)	(1,0)	(1,0)	(1,0)	(1,0)	(1,0)	(1,0)	(1,0)	(1,0)	(1,0)	(1,0)	
L1D -366>	(-65,1)	(187,1)	(248,1)	(1,0)	(1,0)	(1,0)	(1,0)	(1,0)	(1,0)	(1,0)	(1,0)	(1,0)	(1,0)	(1,0)	(1,0)	(1,0)	
L1D -365>	(185,2)	(1,0)	(1,0)	(1,0)	(1,0)	(1,0)	(1,0)	(1,0)	(1,0)	(1,0)	(1,0)	(1,0)	(1,0)	(1,0)	(1,0)	(1,0)	
L1D -364>	(1,0)	(1,0)	(1,0)	(1,0)	(1,0)	(1,0)	(1,0)	(1,0)	(1,0)	(1,0)	(1,0)	(1,0)	(1,0)	(1,0)	(1,0)	(1,0)	
L1D -363>	(-16,1)	(230,1)	(1,0)	(1,0)	(1,0)	(1,0)	(1,0)	(1,0)	(1,0)	(1,0)	(1,0)	(1,0)	(1,0)	(1,0)	(1,0)	(1,0)	
L1D -362>	(356,7)	(357,21)	(1,7)	(0,1)	(249,4)	(42,1)	(248,2)	(355,1)	(1,0)	(1,0)	(1,0)	(1,0)	(1,0)	(1,0)	(1,0)	(1,0)	
L1D -361>	(355,22)	(0,1)	(1,26)	(248,6)	(356,7)	(54,2)	(56,1)	(50,1)	(352,1)	(35,2)	(38,1)	(17,1)	(367,1)	(247,1)	(1,0)	(1,0)	
L1D -360>	(355,19)	(0,7)	(357,1)	(1,11)	(334,1)	(359,3)	(350,1)	(-1,1)	(460,1)	(15,1)	(21,1)	(36,1)	(354,2)	(-19,1)	(346,1)	(1,0)	
L1D -359>	(359,16)	(0,10)	(1,27)	(356,3)	(-19,1)	(446,2)	(249,50)	(354,4)	(470,30)	(248,32)	(348,1)	(353,1)	(49,3)	(360,3)	(357,22)	(245,1)	
L1D -358>	(359,12)	(468,33)	(0,20)	(355,33)	(356,4)	(469,11)	(1,9)	(466,5)	(247,16)	(54,33)	(248,49)	(353,16)	(462,2)	(358,5)	(352,5)	(463,1)	
L1D -357>	(0,11)	(1,8)	(354,9)	(351,3)	(357,11)	(462,1)	(358,3)	(6,1)	(352,4)	(247,26)	(460,1)	(246,29)	(29,1)	(457,1)	(452,1)	(243,3)	
L1D -356>	(356,68)	(0,14)	(353,6)	(1,11)	(339,2)	(15,1)	(447,1)	(246,42)	(467,6)	(350,3)	(243,2)	(460,3)	(357,3)	(354,2)	(245,6)	(45,1)	
L1D -355>	(466,7)	(0,13)	(352,12)	(349,8)	(242,13)	(355,12)	(452,4)	(1,15)	(350,4)	(460,1)	(353,31)	(462,1)	(358,3)	(244,17)	(245,13)	(48,34)	
L1D -354>	(0,13)	(349,4)	(240,4)	(461,2)	(351,15)	(354,24)	(447,2)	(39,2)	(348,11)	(46,2)	(243,14)	(241,4)	(465,6)	(244,16)	(1,4)	(38,1)	
L1D -353>	(0,12)	(15,2)	(353,5)	(350,4)	(354,3)	(1,4)	(6,1)	(248,1)	(243,17)	(242,5)	(53,1)	(458,1)	(356,2)	(347,17)	(240,1)	(52,1)	
L1D -352>	(350,17)	(0,14)	(349,10)	(462,3)	(353,1)	(242,73)	(347,7)	(352,8)	(460,2)	(244,1)	(47,1)	(1,7)	(346,2)	(343,1)	(49,1)	(6,1)	
L1D -351>	(0,8)	(351,28)	(348,23)	(1,17)	(240,29)	(26,1)	(241,43)	(343,2)	(462,3)	(459,1)	(345,7)	(349,6)	(238,1)	(353,2)	(446,1)	(451,1)	
L1D -350>	(30,2)	(347,70)	(0,12)	(350,8)	(239,6)	(6,2)	(344,15)	(1,24)	(240,38)	(446,2)	(458,4)	(452,8)	(460,3)	(345,2)	(457,1)	(236,1)	
L1D -349>	(0,7)	(343,4)	(346,10)	(332,1)	(350,6)	(29,1)	(239,39)	(53,1)	(462,2)	(235,1)	(344,4)	(357,1)	(1,4)	(457,1)	(458,1)	(349,4)	
L1D -348>	(349,9)	(0,11)	(345,5)	(1,14)	(346,9)	(27,1)	(354,1)	(350,2)	(238,34)	(348,28)	(235,8)	(256,1)	(237,9)	(19,1)	(337,1)	(460,2)	
L1D -347>	(344,12)	(0,14)	(1,23)	(345,4)	(236,13)	(460,1)	(237,42)	(346,1)	(19,1)	(347,25)	(348,3)	(458,2)	(353,1)	(342,9)	(234,7)	(46,1)	
L1D -346>	(0,12)	(454,2)	(24,2)	(344,3)	(351,2)	(49,2)	(346,15)	(236,12)	(232,6)	(340,5)	(1,5)	(343,5)	(235,17)	(341,2)	(48,1)	(457,2)	
L1D -345>	(1,14)	(342,4)	(456,1)	(0,7)	(348,2)	(235,45)	(345,24)	(347,1)	(346,11)	(327,3)	(6,1)	(459,2)	(343,4)	(234,8)	(339,1)	(-11,3)	
L1D -344>	(0,7)	(11,1)	(342,5)	(341,14)	(15,1)	(462,2)	(454,1)	(233,15)	(234,35)	(344,13)	(338,1)	(458,3)	(463,1)	(211,1)	(345,2)	(332,1)	
L1D -343>	(343,29)	(1,40)	(340,10)	(453,2)	(229,1)	(0,4)	(6,3)	(337,19)	(233,25)	(46,1)	(232,13)	(338,4)	(459,1)	(19,1)	(346,1)	(-11,2)	
L1D -342>	(6,3)	(0,8)	(337,6)	(452,5)	(229,2)	(35,1)	(232,36)	(1,29)	(339,9)	(231,2)	(342,19)	(241,31)	(336,13)	(343,7)	(447,1)	(334,1)	
L1D -341>	(0,5)	(342,5)	(1,11)	(-16,3)	(231,43)	(9,1)	(451,2)	(21,1)	(335,10)	(338,4)	(461,1)	(445,1)	(452,2)	(462,1)	(349,1)	(28,1)	
L1D -340>	(0,15)	(-2,2)	(42,2)	(340,34)	(-11,5)	(1,27)	(337,11)	(239,9)	(230,42)	(229,27)	(338,1)	(227,3)	(335,2)	(6,2)	(451,3)	(339,2)	
L1D -339>	(0,6)	(340,3)	(1,12)	(334,5)	(339,16)	(-11,4)	(338,1)	(229,42)	(226,4)	(228,3)	(446,1)	(6,2)	(336,27)	(333,7)	(342,2)	(12,2)	
L1D -338>	(0,6)	(335,3)	(-11,5)	(339,4)	(228,24)	(6,9)	(21,2)	(-10,2)	(341,3)	(-17,2)	(336,6)	(1,5)	(350,1)	(323,1)	(5,4)	(347,1)	
L1D -337>	(1,12)	(0,11)	(448,3)	(328,1)	(332,1)	(334,4)	(331,96)	(335,7)	(226,8)	(337,6)	(43,1)	(227,46)	(343,1)	(6,2)	(338,3)	(323,1)	
L1D -336>	(1,9)	(444,16)	(0,7)	(449,16)	(12,26)	(330,64)	(336,3)	(333,2)	(226,16)	(446,5)	(450,8)	(447,18)	(225,5)	(443,2)	(6,14)	(331,100)	
L1D -335>	(1,119)	(333,5)	(0,9)	(443,15)	(6,13)	(12,27)	(442,2)	(457,2)	(332,7)	(336,4)	(-11,2)	(225,17)	(446,24)	(347,1)	(449,8)	(359,2)	
L1D -334>	(0,14)	(1,47)	(445,85)	(454,14)	(6,40)	(25,1)	(442,110)	(331,13)	(456,4)	(448,4)	(48,3)	(447,22)	(444,5)	(452,7)	(453,25)	(439,17)	
L1D -333>	(1,19)	(0,3)	(328,45)	(6,127)	(452,5)	(325,6)	(330,9)	(331,30)	(338,4)	(333,4)	(37,3)	(450,5)	(-6,1)	(444,26)	(327,70)	(339,2)	
L1D -332>	(6,127)	(-11,4)	(1,7)	(324,8)	(7,2)	(60,6)	(26,3)	(326,36)	(350,2)	(336,1)	(327,102)	(446,2)	(448,7)	(330,1)	(11,6)	(443,11)	
L1D -331>	(-6,4)	(0,4)	(334,32)	(325,59)	(-7,6)	(328,14)	(1,107)	(6,107)	(445,1)	(444,7)	(323,3)	(11,9)	(442,5)	(329,18)	(326,2)	(440,1)	
L1D -330>	(331,1)	(1,56)	(333,47)	(324,93)	(6,98)	(327,11)	(328,5)	(216,3)	(441,5)	(11,3)	(325,32)	(444,10)	(443,9)	(449,5)	(446,3)	(450,2)	
L1D -329>	(303,1)	(1,92)	(326,28)	(332,10)	(445,12)	(6,127)	(442,15)	(327,12)	(324,37)	(334,2)	(440,7)	(443,16)	(437,3)	(323,106)	(11,24)	(446,3)	
L1D -328>	(6,85)	(1,99)	(436,4)	(323,8)	(433,21)	(330,7)	(0,9)	(-8,9)	(325,24)	(-7,9)	(322,44)	(435,12)	(441,2)	(327,3)	(-6,6)	(12,4)	
L1D -327>	(328,1)	(1,110)	(-5,4)	(329,10)	(5,43)	(330,13)	(440,7)	(325,10)	(0,13)	(12,6)	(324,24)	(443,15)	(6,94)	(431,5)	(432,8)	(321,4)	
L1D -326>	(6,105)	(329,21)	(1,115)	(0,10)	(-6,3)	(431,22)	(439,8)	(328,3)	(320,18)	(321,1)	(323,37)	(-17,2)	(5,19)	(437,3)	(11,9)	(442,15)	
L1D -325>	(-12,1)	(436,1)	(328,55)	(0,2)	(325,1)	(322,27)	(6,16)	(438,7)	(1,73)	(319,22)	(5,2)	(432,4)	(-13,9)	(320,5)	(-6,5)	(12,1)	
L1D -324>	(1,78)	(6,21)	(327,93)	(319,5)	(321,13)	(432,6)	(326,6)	(324,1)	(0,2)	(443,2)	(5,12)	(438,16)	(431,8)	(437,5)	(-15,4)	(318,4)	
L1D -323>	(326,84)	(325,5)	(320,5)	(1,93)	(440,1)	(442,2)	(439,2)	(437,6)	(321,3)	(5,7)	(318,8)	(317,3)	(431,3)	(436,2)	(6,9)	(323,1)	
L1D -322>	(-6,2)	(432,2)	(316,6)	(325,20)	(1,100)	(6,24)	(433,4)	(0,4)	(436,2)	(319,8)	(435,4)	(5,7)	(438,7)	(-19,7)	(-20,1)	(317,7)	
L1D -321>	(431,10)	(324,11)	(1,70)	(426,3)	(6,16)	(318,7)	(316,7)	(434,8)	(437,7)	(436,3)	(315,6)	(5,10)	(11,5)	(-20,1)	(-6,4)	(0,4)	
L1D -320>	(425,14)	(428,5)	(323,24)	(1,107)	(6,21)	(315,7)	(422,2)	(431,8)	(314,14)	(11,12)	(430,21)	(5,7)	(326,3)	(-11,4)	(-5,1)	(317,9)	
L1D -319>	(430,3)	(1,93)	(316,14)	(321,4)	(-25,1)	(5,23)	(322,8)	(6,50)	(432,8)	(319,4)	(11,5)	(427,5)	(-14,11)	(426,5)	(-12,6)	(424,4)	
L1D -318>	(423,9)	(315,7)	(320,15)	(312,15)	(431,6)	(6,41)	(432,4)	(321,14)	(-28,6)	(1,109)	(5,15)	(11,1)	(-27,4)	(424,3)	(425,5)	(318,12)	
L1D -317>	(320,115)	(0,14)	(1,15)	(319,10)	(-6,10)	(6,72)	(314,37)	(312,8)	(311,2)	(430,21)	(5,49)	(-29,17)	(427,14)	(422,6)	(11,6)	(428,7)	
L1D -316>	(316,19)	(1,12)	(424,15)	(313,59)	(319,88)	(318,9)	(0,11)	(6,47)	(310,69)	(421,21)	(423,34)	(5,24)	(-11,1)	(-5,7)	(311,57)	(-6,17)	
L1D -315>	(420,8)	(312,8)	(0,4)	(1,3)	(318,72)	(-23,3)	(317,8)	(310,12)	(6,23)	(-32,1)	(-6,1)	(5,9)	(423,11)	(426,5)	(309,36)	(428,9)	
L1D -314>	(1,9)	(311,71)	(2,1)	(317,64)	(316,8)	(6,75)	(425,2)	(422,24)	(-34,10)	(-6,15)	(0,17)	(5,33)	(427,30)	(309,75)	(308,56)	(-12,4)	
L1D -313>	(315,9)	(316,86)	(1,19)	(5,28)	(307,32)	(418,36)	(310,28)	(6,77)	(308,79)	(421,53)	(314,1)	(420,64)	(415,49)	(0,6)	(11,19)	(426,17)	
L1D -312>	(427,1)	(315,117)	(1,21)	(0,14)	(11,83)	(5,42)	(6,103)	(307,105)	(420,94)	(309,54)	(314,27)	(-38,17)	(306,10)	(414,13)	(422,90)	(425,29)	
L1D -311>	(5,36)	(421,3)	(424,1)	(311,8)	(314,33)	(308,59)	(-40,11)	(309,10)	(422,3)	(6,84)	(416,5)	(-29,7)	(312,2)	(419,7)	(306,24)	(418,4)	
L1D -310>	(307,25)	(6,86)	(-6,2)	(312,40)	(417,4)	(1,20)	(0,15)	(5,36)	(197,1)	(313,18)	(305,6)	(308,12)	(11,3)	(423,6)	(-43,13)	(-44,5)	
L1D -309>	(1,8)	(312,84)	(306,76)	(-46,6)	(311,11)	(425,5)	(195,1)	(0,9)	(417,18)	(-6,24)	(307,22)	(309,20)	(6,55)	(5,50)	(-5,16)	(416,9)	
L1D -308>	(0,4)	(305,44)	(311,112)	(416,24)	(-6,9)	(310,18)	(418,1)	(5,27)	(-36,4)	(6,19)	(308,12)	(422,10)	(200,2)	(424,2)	(-11,2)	(-35,2)	
L1D -307>	(304,26)	(412,24)	(310,104)	(-49,20)	(6,24)	(307,4)	(417,1)	(1,17)	(5,24)	(309,43)	(414,8)	(-50,5)	(420,11)	(421,3)	(0,11)	(411,3)	
L1D -306>	(5,45)	(-11,17)	(411,25)	(309,70)	(-40,9)	(308,27)	(300,27)	(303,49)	(1,17)	(416,5)	(3,3)	(-10,1)	(306,12)	(-50,6)	(-51,22)	(-41,17)	
L1D -305>	(0,11)	(307,33)	(308,67)	(1,10)	(-6,28)	(-5,5)	(-53,9)	(305,8)	(302,40)	(412,6)	(5,47)	(413,15)	(418,1)	(407,15)	(410,25)	(3,3)	
L1D -304>	(417,9)	(16,10)	(306,26)	(412,22)	(0,16)	(298,33)	(301,30)	(406,32)	(411,32)	(-56,1)	(307,82)	(5,24)	(-6,7)	(409,44)	(304,5)	(414,36)	
L1D -303>	(-6,30)	(5,53)	(3,5)	(0,22)	(306,70)	(410,28)	(303,9)	(300,85)	(408,31)	(298,33)	(309,1)	(-52,4)	(1,15)	(405,3)	(407,4)	(-11,13)	
L1D -302>	(5,19)	(299,6)	(1,16)	(305,82)	(304,17)	(192,1)	(409,14)	(-47,17)	(302,30)	(194,6)	(403,2)	(410,10)	(407,8)	(297,4)	(-6,9)	(-1,4)	
L1D -301>	(5,8)	(-50,1)	(409,5)	(303,23)	(298,2)	(300,6)	(304,70)	(-6,6)	(1,4)	(301,2)	(302,1)	(405,1)	(0,6)	(392,3)	(-11,9)	(406,2)	
L1D -300>	(300,68)	(295,8)	(-12,17)	(-52,25)	(0,23)	(410,19)	(-51,15)	(1,41)	(302,15)	(303,30)	(-6,41)	(407,25)	(297,1)	(192,14)	(2,6)	(408,50)	
L1D -299>	(301,65)	(302,20)	(-11,6)	(0,9)	(-5,2)	(1,10)	(-6,10)	(-53,4)	(-12,4)	(407,4)	(297,0)	(299,6)	(194,5)	(-1,18)	(-61,1)	(403,3)	
L1D -298>	(298,3)	(-55,12)	(0,4)	(301,58)	(405,1)	(176,3)	(-56,39)	(1,54)	(275,1)	(188,7)	(-12,16)	(403,4)	(135,1)	(-11,14)	(193,2)	(304,5)	
L1D -297>	(-12,61)	(-57,33)	(-58,69)	(-6,13)	(-11,9)	(0,2)	(304,2)	(295,26)	(297,1)	(-46,1)	(338,1)	(405,7)	(1,29)	(-61,3)	(400,1)	(402,2)	
L1D -296>	(1,2)	(0,4)	(-60,3)	(5,1)	(240,38)	(2,6)	(237,1)	(188,3)	(232,1)	(-43,1)	(-1,2)	(-61,3)	(-59,1)	(304,2)	(295,2)	(6,1)	
L1D -295>	(1,4)	(-62,47)	(-6,1)	(11,3)	(2,2)	(-1,3)	(-61,15)	(240,1)	(33,1)	(313,1)	(5,2)	(-11,4)	(0,1)	(-47,1)	(295,1)	(29,1)	
L1D -294>	(405,1)	(-1,92)	(252,1)	(0,2)	(294,3)	(160,1)	(-135,1)	(-11,1)	(309,1)	(326,1)	(257,1)	(1,0)	(1,0)	(1,0)	(1,0)	(1,0)	
L1D -293>	(4,1)	(0,7)	(5,3)	(-6,1)	(240,32)	(-3,2)	(-11,7)	(1,0)	(1,0)	(1,0)	(1,0)	(1,0)	(1,0)	(1,0)	(1,0)	(1,0)	
L1D -292>	(228,1)	(1,1)	(-1,5)	(0,2)	(304,1)	(-3,1)	(-11,1)	(1,0)	(1,0)	(1,0)	(1,0)	(1,0)	(1,0)	(1,0)	(1,0)	(1,0)	
L1D -291>	(7,16)	(1,2)	(-64,1)	(291,1)	(32,1)	(-11,6)	(0,1)	(5,1)	(181,1)	(-8,1)	(98,1)	(427,1)	(1,0)	(1,0)	(1,0)	(1,0)	
L1D -290>	(402,5)	(7,13)	(1,2)	(-11,2)	(332,1)	(5,10)	(2,6)	(-3,37)	(11,19)	(405,2)	(-1,30)	(0,2)	(412,1)	(409,2)	(286,1)	(248,1)	
L1D -289>	(7,17)	(412,2)	(-1,4)	(-11,3)	(309,1)	(410,2)	(404,2)	(409,2)	(405,1)	(224,1)	(402,1)	(285,1)	(171,2)	(0,1)	(1,2)	(181,1)	
L1D -288>	(7,17)	(-16,2)	(254,2)	(6,3)	(5,1)	(412,2)	(403,1)	(-18,1)	(283,1)	(409,1)	(287,1)	(405,2)	(-31,1)	(11,14)	(280,1)	(402,1)	
L1D -287>	(7,18)	(-1,2)	(0,4)	(283,3)	(-44,1)	(284,1)	(405,1)	(285,1)	(-3,4)	(282,1)	(407,1)	(279,2)	(-64,1)	(410,1)	(1,1)	(16,7)	
L1D -286>	(1,14)	(2,1)	(407,2)	(7,10)	(406,1)	(283,2)	(403,1)	(404,1)	(278,1)	(275,1)	(4,2)	(11,1)	(-11,6)	(-29,1)	(-10,2)	(3,1)	
L1D -285>	(-7,7)	(0,4)	(1,34)	(282,4)	(7,3)	(404,1)	(414,1)	(-130,1)	(4,4)	(221,1)	(-11,8)	(-10,1)	(2,1)	(3,2)	(304,1)	(1,0)	
L1D -284>	(408,2)	(-7,13)	(1,19)	(-1,6)	(395,1)	(278,1)	(207,1)	(4,3)	(2,4)	(0,3)	(-11,1)	(85,5)	(-10,2)	(6,1)	(100,1)	(247,1)	
L1D -283>	(2,2)	(-7,15)	(277,1)	(405,2)	(1,13)	(398,2)	(399,2)	(394,1)	(400,1)	(402,1)	(274,1)	(4,4)	(6,1)	(0,2)	(-4,2)	(3,9)	
L1D -282>	(3,4)	(-7,20)	(402,3)	(-1,26)	(395,2)	(2,19)	(-3,33)	(272,2)	(282,1)	(399,1)	(408,1)	(278,1)	(271,1)	(1,10)	(4,1)	(0,8)	
L1D -281>	(396,4)	(-7,14)	(3,15)	(-1,7)	(2,7)	(236,1)	(407,1)	(281,5)	(278,1)	(4,3)	(16,1)	(399,1)	(-25,1)	(0,7)	(292,1)	(1,10)	
L1D -280>	(-7,18)	(-1,3)	(0,11)	(278,3)	(1,18)	(-11,4)	(-3,2)	(273,2)	(3,12)	(2,2)	(272,2)	(402,3)	(395,1)	(398,1)	(4,4)	(-62,1)	
L1D -279>	(-11,27)	(398,2)	(-7,11)	(279,4)	(1,21)	(0,12)	(-1,3)	(402,2)	(3,3)	(275,2)	(-3,7)	(2,6)	(394,1)	(276,1)	(4,5)	(35,1)	
L1D -278>	(275,1)	(1,27)	(4,4)	(0,12)	(334,1)	(-5,5)	(278,5)	(2,4)	(-4,4)	(-1,3)	(1,0)	(1,0)	(1,0)	(1,0)	(1,0)	(1,0)	
L1D -277>	(277,4)	(-11,31)	(276,1)	(1,28)	(4,1)	(-1,6)	(2,6)	(-144,1)	(-202,1)	(-31,1)	(409,1)	(-128,1)	(0,12)	(-4,6)	(278,1)	(5,1)	
L1D -276>	(260,1)	(133,1)	(1,34)	(2,8)	(276,7)	(60,1)	(47,1)	(-23,1)	(0,9)	(-1,2)	(-5,3)	(-4,1)	(-2,2)	(1,0)	(1,0)	(1,0)	
L1D -275>	(275,7)	(331,1)	(0,16)	(1,26)	(-1,3)	(2,2)	(-11,3)	(96,2)	(286,1)	(273,1)	(135,1)	(-185,1)	(461,1)	(-5,5)	(-4,3)	(276,5)	
L1D -274>	(-14,2)	(267,3)	(303,1)	(262,1)	(1,11)	(-1,1)	(0,1)	(257,1)	(140,1)	(84,1)	(1,0)	(1,0)	(1,0)	(1,0)	(1,0)	(1,0)	
L1D -273>	(270,1)	(2,1)	(-2,1)	(-1,1)	(339,1)	(0,5)	(244,1)	(273,2)	(149,1)	(1,18)	(1,0)	(1,0)	(1,0)	(1,0)	(1,0)	(1,0)	
L1D -272>	(235,1)	(0,6)	(-54,1)	(-24,1)	(335,1)	(256,1)	(264,1)	(48,1)	(1,0)	(1,0)	(1,0)	(1,0)	(1,0)	(1,0)	(1,0)	(1,0)	
L1D -271>	(0,8)	(1,46)	(377,1)	(4,1)	(-16,51)	(11,1)	(-1,1)	(271,15)	(32,1)	(-2,1)	(96,1)	(8,1)	(144,1)	(1,0)	(1,0)	(1,0)	
L1D -270>	(0,17)	(389,1)	(270,2)	(63,1)	(142,1)	(413,1)	(289,3)	(1,0)	(1,0)	(1,0)	(1,0)	(1,0)	(1,0)	(1,0)	(1,0)	(1,0)	
L1D -269>	(9,2)	(1,1)	(72,1)	(147,31)	(-18,1)	(5,2)	(87,1)	(135,1)	(1,0)	(1,0)	(1,0)	(1,0)	(1,0)	(1,0)	(1,0)	(1,0)	
L1D -268>	(184,1)	(78,1)	(37,1)	(401,1)	(1,0)	(1,0)	(1,0)	(1,0)	(1,0)	(1,0)	(1,0)	(1,0)	(1,0)	(1,0)	(1,0)	(1,0)	
L1D -267>	(232,2)	(431,1)	(145,4)	(261,1)	(267,1)	(1,0)	(1,0)	(1,0)	(1,0)	(1,0)	(1,0)	(1,0)	(1,0)	(1,0)	(1,0)	(1,0)	
L1D -266>	(401,1)	(230,1)	(263,1)	(67,1)	(136,1)	(-127,1)	(1,0)	(1,0)	(1,0)	(1,0)	(1,0)	(1,0)	(1,0)	(1,0)	(1,0)	(1,0)	
L1D -265>	(1,4)	(-4,1)	(143,5)	(257,6)	(263,1)	(-1,1)	(-66,1)	(129,1)	(256,1)	(191,1)	(-33,1)	(185,1)	(1,0)	(1,0)	(1,0)	(1,0)	
L1D -264>	(35,1)	(0,6)	(431,1)	(128,1)	(133,1)	(255,1)	(259,1)	(264,1)	(265,1)	(223,1)	(230,2)	(116,1)	(136,1)	(200,1)	(144,2)	(256,1)	
L1D -263>	(2,25)	(-1,115)	(0,5)	(127,1)	(290,1)	(106,1)	(128,1)	(255,2)	(264,1)	(263,1)	(1,0)	(1,0)	(1,0)	(1,0)	(1,0)	(1,0)	
L1D -262>	(-79,1)	(1,6)	(262,1)	(0,1)	(-211,1)	(296,1)	(-2,1)	(96,1)	(232,1)	(1,0)	(1,0)	(1,0)	(1,0)	(1,0)	(1,0)	(1,0)	
L1D -261>	(0,13)	(-1,5)	(-3,124)	(1,10)	(-2,1)	(263,1)	(261,1)	(106,1)	(403,1)	(-35,1)	(1,0)	(1,0)	(1,0)	(1,0)	(1,0)	(1,0)	
L1D -260>	(-23,1)	(0,2)	(6,1)	(1,24)	(3,1)	(260,1)	(7,1)	(2,3)	(132,1)	(-12,1)	(-1,1)	(5,1)	(105,1)	(1,0)	(1,0)	(1,0)	
L1D -259>	(259,5)	(19,4)	(33,21)	(1,3)	(47,36)	(11,6)	(41,1)	(-12,1)	(170,1)	(120,1)	(0,1)	(1,0)	(1,0)	(1,0)	(1,0)	(1,0)	
L1D -258>	(11,36)	(64,1)	(19,35)	(0,6)	(384,15)	(-13,39)	(4,10)	(15,1)	(-1,2)	(138,1)	(47,1)	(2,1)	(279,1)	(-181,1)	(427,1)	(328,1)	
L1D -257>	(-80,1)	(-74,1)	(384,2)	(0,10)	(200,1)	(383,1)	(209,1)	(142,1)	(184,1)	(264,1)	(283,1)	(288,1)	(151,1)	(-1,3)	(145,1)	(156,1)	
L1D -256>	(239,1)	(366,1)	(-1,7)	(253,1)	(0,30)	(128,5)	(236,1)	(-17,1)	(396,1)	(384,52)	(64,1)	(-3,4)	(207,1)	(252,14)	(275,1)	(211,1)	
L1D -255>	(1,5)	(-64,1)	(223,1)	(-1,2)	(384,4)	(259,22)	(255,2)	(0,3)	(-2,1)	(-42,1)	(33,1)	(248,1)	(136,1)	(200,1)	(31,1)	(271,1)	
L1D -254>	(0,3)	(223,8)	(-17,4)	(47,2)	(-1,2)	(-4,5)	(-2,2)	(-3,1)	(250,42)	(120,1)	(1,2)	(-5,2)	(254,1)	(115,2)	(257,42)	(252,18)	
L1D -253>	(223,7)	(126,2)	(222,4)	(251,1)	(120,1)	(0,4)	(138,1)	(133,2)	(116,1)	(288,1)	(125,1)	(257,12)	(252,27)	(287,1)	(8,1)	(384,2)	
L1D -252>	(223,10)	(118,1)	(119,2)	(222,4)	(130,1)	(135,2)	(252,26)	(131,1)	(128,2)	(116,1)	(0,1)	(237,1)	(120,2)	(126,1)	(185,1)	(258,1)	
L1D -251>	(128,1)	(115,2)	(133,2)	(223,5)	(131,1)	(222,4)	(116,1)	(119,1)	(122,1)	(125,1)	(130,1)	(124,1)	(252,18)	(373,1)	(-94,1)	(1,0)	
L1D -250>	(129,8)	(246,2)	(122,1)	(1,2)	(1,0)	(1,0)	(1,0)	(1,0)	(1,0)	(1,0)	(1,0)	(1,0)	(1,0)	(1,0)	(1,0)	(1,0)	
L1D -249>	(0,2)	(257,1)	(1,3)	(360,8)	(359,6)	(128,11)	(-17,1)	(-8,2)	(129,1)	(245,1)	(265,1)	(1,0)	(1,0)	(1,0)	(1,0)	(1,0)	
L1D -248>	(359,7)	(249,2)	(244,28)	(-17,1)	(263,1)	(-9,9)	(0,9)	(240,1)	(247,2)	(136,12)	(358,1)	(461,1)	(264,3)	(396,1)	(397,1)	(248,5)	
L1D -247>	(3,2)	(247,2)	(-40,1)	(-11,4)	(0,22)	(240,1)	(358,13)	(355,2)	(1,2)	(248,1)	(120,1)	(246,1)	(1,0)	(1,0)	(1,0)	(1,0)	
L1D -246>	(357,17)	(18,1)	(359,2)	(1,5)	(360,2)	(354,4)	(460,1)	(118,1)	(0,1)	(356,1)	(1,0)	(1,0)	(1,0)	(1,0)	(1,0)	(1,0)	
L1D -245>	(1,7)	(358,20)	(356,3)	(0,2)	(-1,1)	(24,1)	(5,2)	(450,1)	(460,1)	(1,0)	(1,0)	(1,0)	(1,0)	(1,0)	(1,0)	(1,0)	
L1D -244>	(0,5)	(350,1)	(354,3)	(1,1)	(240,1)	(393,1)	(395,1)	(466,1)	(389,2)	(89,1)	(12,1)	(173,1)	(1,0)	(1,0)	(1,0)	(1,0)	
L1D -243>	(356,1)	(359,3)	(351,2)	(345,1)	(354,21)	(353,2)	(349,1)	(242,1)	(122,5)	(0,3)	(348,1)	(1,0)	(1,0)	(1,0)	(1,0)	(1,0)	
L1D -242>	(-11,2)	(352,2)	(358,4)	(346,1)	(353,7)	(242,1)	(269,1)	(359,19)	(1,43)	(449,1)	(337,1)	(4,1)	(350,1)	(360,1)	(35,1)	(345,3)	
L1D -241>	(0,6)	(237,4)	(351,1)	(-2,1)	(359,3)	(241,3)	(120,7)	(52,1)	(249,1)	(354,3)	(-15,2)	(349,1)	(358,1)	(340,2)	(346,1)	(220,1)	
L1D -240>	(0,12)	(237,16)	(359,6)	(1,2)	(256,3)	(257,3)	(-1,1)	(236,32)	(351,19)	(-17,4)	(240,5)	(112,7)	(239,4)	(379,1)	(-8,3)	(356,3)	
L1D -239>	(-1,3)	(222,3)	(350,8)	(236,1)	(240,1)	(-48,1)	(254,1)	(337,1)	(-19,1)	(0,4)	(-16,1)	(336,1)	(239,1)	(128,1)	(349,1)	(342,1)	
L1D -238>	(1,9)	(0,38)	(238,93)	(241,3)	(340,1)	(224,101)	(343,1)	(240,17)	(225,5)	(348,13)	(222,1)	(346,1)	(223,2)	(349,8)	(272,1)	(351,0)	
L1D -237>	(0,3)	(233,0)	(238,3)	(222,78)	(123,0)	(134,0)	(138,0)	(117,0)	(130,0)	(337,0)	(129,0)	(348,0)	(131,0)	(133,0)	(1,0)	(1,0)	
L1D -236>	(239,1)	(0,18)	(347,4)	(118,1)	(-216,1)	(236,1)	(1,1)	(350,1)	(-8,1)	(1,0)	(1,0)	(1,0)	(1,0)	(1,0)	(1,0)	(1,0)	
L1D -235>	(232,1)	(346,19)	(1,15)	(0,4)	(223,33)	(110,1)	(-210,1)	(14,2)	(222,1)	(-221,3)	(-216,2)	(-225,1)	(349,2)	(343,1)	(337,1)	(-110,1)	
L1D -234>	(-203,2)	(222,2)	(344,3)	(118,3)	(113,36)	(345,11)	(112,2)	(0,6)	(350,1)	(147,1)	(457,1)	(132,25)	(117,35)	(131,6)	(1,1)	(-224,1)	
L1D -233>	(0,81)	(121,3)	(131,4)	(222,15)	(137,4)	(135,3)	(115,8)	(237,26)	(134,2)	(114,3)	(116,5)	(123,5)	(136,3)	(133,2)	(120,1)	(128,4)	
L1D -232>	(0,3)	(359,3)	(342,1)	(340,3)	(232,3)	(343,11)	(1,1)	(349,2)	(336,2)	(337,18)	(-207,4)	(-205,1)	(437,1)	(-211,1)	(-7,3)	(357,2)	
L1D -231>	(13,3)	(0,8)	(339,4)	(-218,1)	(447,1)	(336,1)	(231,1)	(45,1)	(1,3)	(342,16)	(328,3)	(6,4)	(-224,2)	(327,1)	(-216,1)	(16,1)	
L1D -230>	(3,3)	(0,11)	(1,2)	(-31,1)	(340,20)	(-8,37)	(328,2)	(338,3)	(343,2)	(9,2)	(102,1)	(64,1)	(63,1)	(-3,3)	(-209,1)	(-207,1)	
L1D -229>	(-228,2)	(112,1)	(134,2)	(339,2)	(137,1)	(337,2)	(223,17)	(8,3)	(-214,2)	(340,6)	(1,5)	(345,1)	(113,2)	(266,1)	(374,1)	(6,9)	
L1D -228>	(-219,2)	(0,6)	(227,1)	(-214,1)	(110,1)	(7,4)	(-211,1)	(349,1)	(339,16)	(6,11)	(342,1)	(325,1)	(5,1)	(1,4)	(298,1)	(-1,1)	
L1D -227>	(-7,2)	(0,1)	(221,1)	(-210,1)	(-208,2)	(326,3)	(329,1)	(441,1)	(22,1)	(-201,1)	(1,7)	(327,1)	(-212,5)	(6,20)	(338,15)	(-221,11)	
L1D -226>	(238,8)	(5,15)	(337,7)	(-206,2)	(226,2)	(-216,4)	(336,5)	(-210,5)	(-211,6)	(0,4)	(3,1)	(6,19)	(-218,2)	(328,2)	(222,21)	(-202,1)	
L1D -225>	(241,6)	(238,15)	(-7,2)	(0,16)	(328,2)	(242,2)	(410,1)	(4,7)	(225,1)	(240,2)	(226,1)	(165,1)	(6,42)	(110,5)	(336,12)	(-219,3)	
L1D -224>	(0,102)	(222,27)	(237,10)	(238,41)	(-207,11)	(-208,1)	(-219,13)	(6,46)	(241,10)	(3,82)	(240,15)	(218,6)	(-199,3)	(225,5)	(213,2)	(-205,3)	
L1D -223>	(223,41)	(0,6)	(238,67)	(139,1)	(229,1)	(122,1)	(140,1)	(121,0)	(325,0)	(237,4)	(222,38)	(252,0)	(124,1)	(228,3)	(225,0)	(133,1)	
L1D -222>	(223,127)	(222,110)	(113,8)	(0,36)	(114,2)	(120,2)	(116,4)	(136,1)	(226,4)	(252,6)	(225,6)	(118,4)	(238,30)	(137,3)	(237,17)	(227,5)	
L1D -221>	(-202,14)	(-208,11)	(0,53)	(-205,10)	(-199,9)	(6,74)	(-210,13)	(-196,7)	(3,14)	(-211,1)	(-203,16)	(-221,13)	(-216,11)	(8,41)	(-207,15)	(-214,12)	
L1D -220>	(322,5)	(-83,32)	(-205,6)	(-200,5)	(-211,17)	(-9,9)	(325,7)	(6,30)	(0,7)	(327,3)	(218,3)	(-212,1)	(-5,2)	(214,2)	(221,2)	(-199,6)	
L1D -219>	(11,2)	(0,7)	(219,2)	(6,76)	(216,3)	(322,2)	(-2,7)	(-6,2)	(5,8)	(-11,1)	(-202,2)	(-203,2)	(218,3)	(1,2)	(324,5)	(-219,1)	
L1D -218>	(0,66)	(-207,11)	(3,19)	(14,3)	(-202,10)	(-214,9)	(218,28)	(6,86)	(-211,1)	(-205,7)	(325,14)	(219,4)	(-219,19)	(-83,3)	(-3,40)	(-206,3)	
L1D -217>	(217,45)	(6,63)	(218,18)	(438,3)	(-6,5)	(5,26)	(0,62)	(324,10)	(-208,11)	(4,1)	(327,2)	(13,2)	(10,2)	(14,2)	(-5,5)	(7,4)	
L1D -216>	(5,45)	(113,1)	(215,19)	(321,5)	(326,5)	(216,30)	(0,50)	(-5,18)	(128,50)	(-1,9)	(110,4)	(1,9)	(7,7)	(-6,16)	(-215,2)	(6,91)	
L1D -215>	(214,17)	(0,84)	(322,7)	(6,67)	(2,31)	(-210,5)	(-2,6)	(-3,13)	(5,8)	(215,57)	(-1,22)	(216,20)	(-206,1)	(-6,53)	(218,3)	(-198,10)	
L1D -214>	(0,58)	(1,14)	(443,5)	(-6,19)	(-5,10)	(215,11)	(214,47)	(324,7)	(325,7)	(96,2)	(213,11)	(-3,13)	(6,82)	(5,27)	(11,9)	(-4,5)	
L1D -213>	(0,86)	(-1,8)	(219,13)	(212,31)	(221,10)	(321,7)	(6,110)	(327,3)	(213,34)	(5,21)	(-3,48)	(-6,1)	(7,4)	(1,22)	(208,2)	(318,6)	
L1D -212>	(-13,6)	(212,62)	(-1,5)	(-5,23)	(211,15)	(0,63)	(-3,19)	(-6,50)	(1,1)	(8,9)	(428,2)	(15,4)	(-10,6)	(12,4)	(6,48)	(5,65)	
L1D -211>	(208,6)	(211,33)	(-6,71)	(210,9)	(6,99)	(-5,35)	(5,26)	(318,23)	(207,5)	(1,1)	(7,12)	(212,10)	(322,10)	(316,15)	(321,33)	(8,4)	
L1D -210>	(-1,14)	(0,42)	(210,41)	(324,9)	(-5,12)	(6,103)	(318,12)	(207,5)	(1,22)	(5,27)	(-6,36)	(3,9)	(-2,5)	(209,8)	(211,21)	(-11,5)	
L1D -209>	(-5,17)	(209,22)	(-3,56)	(-6,35)	(322,13)	(320,1)	(-2,7)	(0,23)	(5,24)	(-11,7)	(6,37)	(1,17)	(8,5)	(208,8)	(210,5)	(206,10)	
L1D -208>	(-4,8)	(6,105)	(319,11)	(-6,13)	(208,10)	(315,17)	(-3,19)	(316,18)	(207,22)	(0,21)	(1,1)	(5,38)	(223,3)	(202,3)	(318,17)	(3,10)	
L1D -207>	(-6,89)	(1,30)	(207,91)	(0,74)	(210,6)	(6,87)	(-5,36)	(11,11)	(206,13)	(7,2)	(-1,86)	(2,13)	(318,9)	(315,16)	(3,6)	(208,14)	
L1D -206>	(6,99)	(5,27)	(0,29)	(1,11)	(206,36)	(207,19)	(314,17)	(313,13)	(319,12)	(4,1)	(316,6)	(-6,84)	(-5,13)	(205,12)	(311,6)	(-11,5)	
L1D -205>	(0,41)	(-1,9)	(315,10)	(6,97)	(5,35)	(-6,67)	(-5,15)	(205,15)	(1,18)	(318,11)	(316,8)	(313,6)	(3,9)	(204,13)	(-4,1)	(-3,90)	
L1D -204>	(-6,26)	(317,7)	(6,78)	(5,42)	(0,48)	(204,51)	(203,21)	(3,14)	(205,15)	(-3,2)	(1,4)	(-1,2)	(198,2)	(219,2)	(-11,8)	(11,3)	
L1D -203>	(6,99)	(5,31)	(203,41)	(0,18)	(316,15)	(3,17)	(313,11)	(-9,16)	(-3,11)	(314,16)	(-5,1)	(8,8)	(204,17)	(-6,22)	(202,5)	(311,11)	
L1D -202>	(313,19)	(6,47)	(0,32)	(-6,49)	(201,31)	(12,4)	(203,16)	(202,25)	(1,42)	(5,28)	(-1,8)	(-3,12)	(-2,3)	(310,13)	(-5,15)	(312,1)	
L1D -201>	(-1,9)	(5,30)	(201,44)	(200,16)	(308,11)	(-6,39)	(6,88)	(314,8)	(-11,9)	(0,25)	(7,5)	(423,1)	(-3,37)	(311,14)	(202,9)	(312,6)	
L1D -200>	(-43,1)	(200,26)	(201,12)	(-11,16)	(313,15)	(8,5)	(5,21)	(199,8)	(6,54)	(197,9)	(-3,44)	(310,11)	(1,28)	(3,10)	(15,7)	(206,7)	
L1D -199>	(312,12)	(307,17)	(199,30)	(6,47)	(0,35)	(-8,5)	(310,11)	(5,19)	(423,4)	(-5,33)	(-2,1)	(200,13)	(-6,15)	(-3,17)	(-14,4)	(-44,4)	
L1D -198>	(198,29)	(197,13)	(-6,43)	(-10,10)	(-5,46)	(5,34)	(6,39)	(308,16)	(1,27)	(311,40)	(-16,5)	(422,4)	(309,6)	(11,9)	(199,1)	(-14,8)	
L1D -197>	(307,10)	(-5,16)	(421,3)	(-6,24)	(197,34)	(0,26)	(6,21)	(-49,8)	(316,1)	(5,16)	(196,11)	(198,5)	(1,8)	(-3,15)	(310,8)	(192,3)	
L1D -196>	(-3,15)	(-5,5)	(5,48)	(196,42)	(-16,6)	(0,50)	(309,9)	(-8,9)	(195,13)	(-6,33)	(6,34)	(310,1)	(-13,5)	(197,19)	(193,8)	(-11,19)	
L1D -195>	(0,17)	(5,35)	(195,67)	(-6,28)	(305,18)	(308,26)	(-8,19)	(-7,5)	(-17,12)	(194,1)	(-16,3)	(1,4)	(306,4)	(196,22)	(-11,8)	(192,3)	
L1D -194>	(5,25)	(407,3)	(-1,6)	(-5,7)	(1,12)	(-3,1)	(305,4)	(208,1)	(194,6)	(-6,22)	(-11,6)	(310,14)	(6,11)	(304,2)	(307,8)	(-9,5)	
L1D -193>	(190,6)	(5,21)	(307,3)	(309,4)	(303,1)	(-1,2)	(-5,3)	(6,2)	(306,2)	(-6,14)	(-12,4)	(-52,5)	(1,6)	(193,3)	(-56,4)	(312,1)	
L1D -192>	(-6,10)	(0,5)	(306,3)	(5,28)	(192,10)	(1,15)	(415,3)	(305,6)	(308,10)	(-52,3)	(195,3)	(6,3)	(412,2)	(189,2)	(74,1)	(416,1)	
L1D -191>	(1,16)	(5,22)	(-6,29)	(304,7)	(-1,11)	(6,6)	(-54,2)	(307,2)	(395,1)	(192,1)	(302,1)	(311,1)	(408,1)	(-16,1)	(-40,2)	(-5,1)	
L1D -190>	(0,4)	(-12,2)	(-6,52)	(-56,3)	(307,4)	(304,3)	(1,36)	(300,2)	(308,3)	(306,4)	(311,3)	(144,1)	(5,20)	(-55,1)	(-1,1)	(6,2)	
L1D -189>	(-6,23)	(409,3)	(1,20)	(306,4)	(305,5)	(307,2)	(-11,7)	(-53,1)	(310,1)	(-16,1)	(-9,1)	(311,2)	(0,3)	(186,6)	(-12,2)	(-1,1)	
L1D -188>	(-6,12)	(-1,15)	(423,1)	(304,2)	(69,1)	(305,7)	(1,5)	(-44,2)	(-17,2)	(5,3)	(-12,4)	(185,11)	(0,1)	(103,1)	(310,2)	(-55,1)	
L1D -187>	(-6,12)	(405,3)	(-255,1)	(-53,1)	(187,1)	(1,2)	(5,8)	(-5,1)	(417,1)	(0,2)	(4,2)	(304,1)	(-47,1)	(-1,1)	(189,1)	(-2,1)	
L1D -186>	(-6,2)	(5,1)	(305,4)	(72,8)	(1,5)	(6,2)	(-55,1)	(-54,2)	(-5,3)	(-1,1)	(199,1)	(2,1)	(-13,1)	(1,0)	(1,0)	(1,0)	
L1D -185>	(304,1)	(406,1)	(5,3)	(301,3)	(2,1)	(-1,2)	(-6,4)	(1,4)	(156,1)	(0,1)	(-56,1)	(-55,3)	(246,1)	(421,1)	(310,1)	(309,2)	
L1D -184>	(5,6)	(-1,4)	(184,1)	(-6,6)	(1,1)	(72,53)	(162,1)	(-3,6)	(308,1)	(306,2)	(2,5)	(246,1)	(16,1)	(1,0)	(1,0)	(1,0)	
L1D -183>	(72,2)	(-6,23)	(-1,2)	(300,2)	(-17,1)	(5,1)	(305,2)	(1,5)	(-4,1)	(307,1)	(36,1)	(172,1)	(308,1)	(0,1)	(2,1)	(296,1)	
L1D -182>	(-1,2)	(-6,4)	(304,2)	(-11,1)	(310,1)	(0,3)	(299,1)	(276,1)	(72,1)	(5,1)	(-50,1)	(1,2)	(307,2)	(-128,1)	(1,0)	(1,0)	
L1D -181>	(0,4)	(72,4)	(112,1)	(181,1)	(305,1)	(410,1)	(-6,1)	(1,1)	(301,1)	(-61,1)	(1,0)	(1,0)	(1,0)	(1,0)	(1,0)	(1,0)	
L1D -180>	(303,1)	(-6,1)	(306,1)	(299,2)	(5,1)	(1,1)	(0,1)	(-81,1)	(1,0)	(1,0)	(1,0)	(1,0)	(1,0)	(1,0)	(1,0)	(1,0)	
L1D -179>	(-6,2)	(0,1)	(305,1)	(-96,1)	(476,1)	(1,1)	(175,1)	(1,0)	(1,0)	(1,0)	(1,0)	(1,0)	(1,0)	(1,0)	(1,0)	(1,0)	
L1D -178>	(421,1)	(302,1)	(1,2)	(0,2)	(304,1)	(-1,1)	(280,1)	(305,1)	(-54,1)	(6,1)	(282,1)	(1,0)	(1,0)	(1,0)	(1,0)	(1,0)	
L1D -177>	(207,1)	(-65,1)	(0,1)	(-276,1)	(-6,1)	(177,1)	(1,1)	(128,1)	(304,1)	(1,0)	(1,0)	(1,0)	(1,0)	(1,0)	(1,0)	(1,0)	
L1D -176>	(190,1)	(5,2)	(1,3)	(178,1)	(4,1)	(-6,2)	(1,0)	(1,0)	(1,0)	(1,0)	(1,0)	(1,0)	(1,0)	(1,0)	(1,0)	(1,0)	
L1D -175>	(5,1)	(1,3)	(-6,2)	(-16,2)	(296,1)	(1,0)	(1,0)	(1,0)	(1,0)	(1,0)	(1,0)	(1,0)	(1,0)	(1,0)	(1,0)	(1,0)	
L1D -174>	(64,1)	(174,1)	(170,1)	(1,0)	(1,0)	(1,0)	(1,0)	(1,0)	(1,0)	(1,0)	(1,0)	(1,0)	(1,0)	(1,0)	(1,0)	(1,0)	
L1D -173>	(173,4)	(107,1)	(0,5)	(171,1)	(-230,1)	(125,1)	(105,1)	(169,1)	(-6,1)	(5,1)	(-126,1)	(32,1)	(-124,1)	(141,1)	(1,0)	(1,0)	
L1D -172>	(209,1)	(108,1)	(299,2)	(-6,1)	(136,1)	(0,1)	(-230,1)	(172,1)	(1,0)	(1,0)	(1,0)	(1,0)	(1,0)	(1,0)	(1,0)	(1,0)	
L1D -171>	(105,2)	(-55,1)	(304,1)	(171,1)	(5,2)	(2,1)	(203,1)	(138,1)	(170,1)	(-256,1)	(1,0)	(1,0)	(1,0)	(1,0)	(1,0)	(1,0)	
L1D -170>	(270,1)	(170,2)	(344,1)	(1,1)	(105,1)	(237,1)	(-1,1)	(29,1)	(172,1)	(168,1)	(-17,1)	(27,1)	(-3,1)	(0,1)	(1,0)	(1,0)	
L1D -169>	(4,1)	(-127,1)	(0,2)	(105,1)	(141,1)	(77,1)	(63,1)	(-287,1)	(-128,1)	(-95,1)	(-19,1)	(329,1)	(31,1)	(167,1)	(171,1)	(1,0)	
L1D -168>	(-4,1)	(142,1)	(0,3)	(378,1)	(168,1)	(-73,1)	(106,1)	(299,1)	(475,1)	(-105,1)	(1,0)	(1,0)	(1,0)	(1,0)	(1,0)	(1,0)	
L1D -167>	(167,1)	(-6,1)	(63,2)	(0,1)	(-2,1)	(-65,1)	(1,0)	(1,0)	(1,0)	(1,0)	(1,0)	(1,0)	(1,0)	(1,0)	(1,0)	(1,0)	
L1D -166>	(30,1)	(165,1)	(61,1)	(1,0)	(1,0)	(1,0)	(1,0)	(1,0)	(1,0)	(1,0)	(1,0)	(1,0)	(1,0)	(1,0)	(1,0)	(1,0)	
L1D -165>	(-92,1)	(165,1)	(0,1)	(-291,1)	(105,1)	(-15,1)	(95,1)	(1,0)	(1,0)	(1,0)	(1,0)	(1,0)	(1,0)	(1,0)	(1,0)	(1,0)	
L1D -164>	(1,30)	(138,1)	(63,1)	(167,1)	(136,1)	(199,1)	(-16,1)	(-76,1)	(1,0)	(1,0)	(1,0)	(1,0)	(1,0)	(1,0)	(1,0)	(1,0)	
L1D -163>	(-28,1)	(0,3)	(210,1)	(69,1)	(15,1)	(288,1)	(1,0)	(1,0)	(1,0)	(1,0)	(1,0)	(1,0)	(1,0)	(1,0)	(1,0)	(1,0)	
L1D -162>	(162,1)	(0,3)	(1,0)	(1,0)	(1,0)	(1,0)	(1,0)	(1,0)	(1,0)	(1,0)	(1,0)	(1,0)	(1,0)	(1,0)	(1,0)	(1,0)	
L1D -161>	(0,3)	(200,1)	(390,1)	(1,0)	(1,0)	(1,0)	(1,0)	(1,0)	(1,0)	(1,0)	(1,0)	(1,0)	(1,0)	(1,0)	(1,0)	(1,0)	
L1D -160>	(0,2)	(128,1)	(16,2)	(163,1)	(-169,1)	(3,1)	(-9,1)	(69,1)	(1,0)	(1,0)	(1,0)	(1,0)	(1,0)	(1,0)	(1,0)	(1,0)	
L1D -159>	(-1,38)	(298,1)	(2,8)	(305,1)	(159,1)	(-239,1)	(4,1)	(1,0)	(1,0)	(1,0)	(1,0)	(1,0)	(1,0)	(1,0)	(1,0)	(1,0)	
L1D -158>	(157,1)	(0,1)	(-154,1)	(239,1)	(85,1)	(1,0)	(1,0)	(1,0)	(1,0)	(1,0)	(1,0)	(1,0)	(1,0)	(1,0)	(1,0)	(1,0)	
L1D -157>	(0,3)	(-1,1)	(-3,42)	(122,1)	(-2,1)	(128,1)	(6,1)	(1,0)	(1,0)	(1,0)	(1,0)	(1,0)	(1,0)	(1,0)	(1,0)	(1,0)	
L1D -156>	(-1,1)	(0,3)	(-48,6)	(156,2)	(162,1)	(-193,1)	(-100,1)	(1,0)	(1,0)	(1,0)	(1,0)	(1,0)	(1,0)	(1,0)	(1,0)	(1,0)	
L1D -155>	(-1,1)	(155,3)	(-63,1)	(174,1)	(67,1)	(157,1)	(-5,1)	(-49,2)	(-106,1)	(0,2)	(217,1)	(293,2)	(-125,1)	(-320,1)	(154,1)	(90,1)	
L1D -154>	(-1,6)	(-24,4)	(-48,59)	(220,1)	(2,2)	(-3,10)	(0,2)	(-173,1)	(165,1)	(-55,1)	(-102,1)	(96,1)	(1,0)	(1,0)	(1,0)	(1,0)	
L1D -153>	(-1,10)	(2,4)	(412,33)	(100,1)	(-151,1)	(3,1)	(-113,1)	(-99,1)	(-257,1)	(89,1)	(1,0)	(1,0)	(1,0)	(1,0)	(1,0)	(1,0)	
L1D -152>	(-1,4)	(0,18)	(88,1)	(-24,66)	(-2,2)	(-3,6)	(30,1)	(16,1)	(77,1)	(-291,1)	(295,1)	(22,1)	(152,3)	(117,1)	(85,1)	(-48,1)	
L1D -151>	(-1,45)	(2,1)	(0,5)	(-48,2)	(151,2)	(119,1)	(-160,1)	(-7,1)	(-263,1)	(-24,1)	(33,1)	(153,1)	(-256,1)	(1,0)	(1,0)	(1,0)	
L1D -150>	(0,5)	(-1,1)	(-16,1)	(17,1)	(-32,2)	(373,1)	(150,3)	(263,1)	(97,1)	(2,1)	(1,0)	(1,0)	(1,0)	(1,0)	(1,0)	(1,0)	
L1D -149>	(0,5)	(177,1)	(-24,2)	(-248,1)	(128,1)	(1,0)	(1,0)	(1,0)	(1,0)	(1,0)	(1,0)	(1,0)	(1,0)	(1,0)	(1,0)	(1,0)	
L1D -148>	(237,1)	(117,1)	(-1,1)	(0,2)	(148,1)	(-133,1)	(-239,1)	(1,0)	(1,0)	(1,0)	(1,0)	(1,0)	(1,0)	(1,0)	(1,0)	(1,0)	
L1D -147>	(177,1)	(208,1)	(0,3)	(147,2)	(5,1)	(242,1)	(-64,1)	(-7,1)	(12,1)	(1,0)	(1,0)	(1,0)	(1,0)	(1,0)	(1,0)	(1,0)	
L1D -146>	(-4,1)	(0,1)	(-136,1)	(-128,1)	(-114,1)	(151,1)	(142,1)	(-27,1)	(138,1)	(1,0)	(1,0)	(1,0)	(1,0)	(1,0)	(1,0)	(1,0)	
L1D -145>	(-66,1)	(137,3)	(-4,1)	(1,2)	(141,3)	(145,1)	(-2,1)	(2,1)	(265,1)	(86,1)	(1,0)	(1,0)	(1,0)	(1,0)	(1,0)	(1,0)	
L1D -144>	(92,1)	(16,1)	(0,8)	(83,1)	(162,1)	(-112,1)	(-128,1)	(-120,1)	(144,1)	(177,1)	(-299,1)	(137,1)	(317,1)	(-136,1)	(128,1)	(112,1)	
L1D -143>	(142,1)	(143,3)	(0,5)	(3,1)	(136,1)	(144,3)	(7,1)	(63,1)	(173,1)	(-1,2)	(-134,1)	(5,1)	(79,1)	(339,1)	(-245,1)	(1,0)	
L1D -142>	(3,1)	(142,1)	(1,59)	(143,5)	(-303,1)	(158,1)	(0,3)	(138,1)	(-155,1)	(144,3)	(31,1)	(1,0)	(1,0)	(1,0)	(1,0)	(1,0)	
L1D -141>	(257,1)	(3,1)	(0,9)	(142,1)	(-63,10)	(223,12)	(252,1)	(1,5)	(-317,1)	(143,2)	(77,1)	(-191,1)	(-271,1)	(139,1)	(-160,1)	(30,1)	
L1D -140>	(223,107)	(3,2)	(50,1)	(1,4)	(252,1)	(-63,18)	(0,24)	(141,2)	(108,5)	(-337,1)	(142,2)	(140,8)	(103,1)	(202,1)	(-15,1)	(-59,1)	
L1D -139>	(-72,1)	(-4,1)	(252,2)	(223,65)	(0,49)	(231,1)	(-159,1)	(222,1)	(-113,1)	(109,1)	(114,2)	(139,1)	(-63,1)	(264,1)	(-8,1)	(108,7)	
L1D -138>	(237,15)	(138,12)	(222,27)	(0,67)	(233,57)	(275,2)	(3,3)	(106,2)	(223,28)	(140,4)	(252,3)	(108,5)	(109,1)	(320,2)	(115,5)	(114,5)	
L1D -137>	(0,91)	(107,6)	(233,2)	(222,6)	(237,9)	(500,17)	(223,57)	(140,4)	(2,1)	(-87,1)	(114,33)	(136,1)	(-1,4)	(-49,1)	(137,10)	(139,1)	
L1D -136>	(136,24)	(233,70)	(-120,1)	(0,105)	(237,15)	(137,4)	(320,35)	(222,17)	(-3,16)	(143,5)	(223,30)	(106,3)	(114,20)	(113,3)	(107,5)	(-10,19)	
L1D -135>	(0,42)	(223,65)	(105,2)	(233,23)	(113,9)	(2,8)	(-1,37)	(138,7)	(106,3)	(237,5)	(225,2)	(252,2)	(135,2)	(-3,1)	(222,5)	(136,0)	
L1D -134>	(137,13)	(226,1)	(2,4)	(-1,2)	(223,110)	(222,2)	(233,14)	(0,83)	(237,4)	(110,5)	(-2,4)	(105,4)	(-63,5)	(134,5)	(111,45)	(-321,6)	
L1D -133>	(0,101)	(223,93)	(222,24)	(-1,6)	(110,16)	(3,4)	(233,80)	(-3,43)	(237,14)	(-322,17)	(137,9)	(111,16)	(103,1)	(167,1)	(102,3)	(136,25)	
L1D -132>	(3,4)	(233,10)	(-323,1)	(223,12)	(-321,23)	(0,82)	(-322,10)	(102,4)	(132,10)	(252,6)	(-3,7)	(110,3)	(109,8)	(237,10)	(-2,3)	(222,7)	
L1D -131>	(222,24)	(101,3)	(0,77)	(108,21)	(-322,20)	(223,21)	(233,55)	(-3,6)	(131,9)	(132,11)	(-1,3)	(-324,5)	(-2,6)	(134,4)	(109,1)	(106,5)	
L1D -130>	(3,8)	(-3,5)	(-1,5)	(0,93)	(223,23)	(107,14)	(-322,15)	(108,1)	(237,9)	(160,5)	(100,5)	(-2,2)	(233,51)	(222,15)	(2,2)	(133,15)	
L1D -129>	(222,5)	(106,37)	(-323,19)	(-324,10)	(105,5)	(0,96)	(223,19)	(3,5)	(-325,1)	(129,12)	(132,9)	(1,4)	(233,7)	(99,5)	(265,2)	(-326,5)	
L1D -128>	(222,26)	(160,55)	(-6,3)	(1,18)	(-152,59)	(98,1)	(106,13)	(237,7)	(-3,15)	(-2,34)	(228,3)	(233,32)	(0,116)	(-325,10)	(128,12)	(-1,12)	
L1D -127>	(2,33)	(223,58)	(113,4)	(3,9)	(-334,5)	(-1,64)	(5,5)	(96,1)	(-328,11)	(0,71)	(1,14)	(-327,3)	(233,55)	(127,8)	(-3,4)	(-333,8)	
L1D -126>	(101,1)	(126,12)	(103,24)	(-327,5)	(0,63)	(-3,5)	(104,9)	(-323,11)	(-322,12)	(237,5)	(-321,4)	(222,8)	(-326,9)	(223,15)	(233,5)	(96,6)	
L1D -125>	(0,81)	(-3,89)	(95,4)	(125,19)	(223,42)	(222,23)	(-332,7)	(-1,4)	(-333,8)	(-278,1)	(102,29)	(-327,3)	(-4,3)	(-323,13)	(237,9)	(233,26)	
L1D -124>	(-321,9)	(0,68)	(222,15)	(223,12)	(-325,21)	(237,11)	(127,1)	(233,39)	(101,30)	(-327,8)	(-1,5)	(-336,4)	(-3,3)	(124,9)	(5,4)	(3,8)	
L1D -123>	(0,63)	(113,1)	(-326,2)	(-325,1)	(123,4)	(-327,2)	(237,3)	(-322,4)	(-321,1)	(-114,7)	(223,2)	(119,84)	(101,3)	(-324,3)	(94,0)	(99,0)	
L1D -122>	(-115,2)	(122,4)	(222,3)	(125,1)	(0,48)	(99,4)	(-285,1)	(93,1)	(118,84)	(223,1)	(233,15)	(-325,1)	(126,2)	(-327,4)	(-323,3)	(108,2)	
L1D -121>	(121,6)	(98,5)	(0,46)	(-323,1)	(117,88)	(-322,2)	(-329,2)	(-116,5)	(223,2)	(116,2)	(-128,2)	(-328,3)	(99,2)	(8,1)	(-324,1)	(-326,1)	
L1D -120>	(0,107)	(-323,2)	(117,3)	(3,4)	(200,31)	(-330,8)	(-332,13)	(222,5)	(-325,3)	(120,16)	(233,2)	(237,4)	(116,114)	(-333,3)	(123,9)	(223,15)	
L1D -119>	(-322,6)	(0,60)	(233,12)	(-326,3)	(252,1)	(108,3)	(-1,12)	(-319,6)	(119,21)	(110,4)	(115,115)	(-329,12)	(-321,2)	(223,20)	(-333,11)	(-330,8)	
L1D -118>	(108,1)	(113,5)	(0,82)	(114,121)	(223,9)	(-324,8)	(-119,10)	(118,39)	(-323,8)	(-334,17)	(-321,7)	(-322,3)	(237,3)	(-335,3)	(95,5)	(-3,4)	
L1D -117>	(0,119)	(222,17)	(113,105)	(-328,10)	(237,9)	(110,4)	(111,9)	(-327,14)	(-329,11)	(3,15)	(223,16)	(117,48)	(-3,28)	(233,4)	(-323,1)	(-330,5)	
L1D -116>	(3,20)	(0,65)	(-317,17)	(-312,4)	(-329,3)	(-319,8)	(-314,5)	(-322,28)	(-327,30)	(-321,17)	(-325,5)	(110,1)	(-330,18)	(112,77)	(116,34)	(-316,10)	
L1D -115>	(0,73)	(110,3)	(-330,4)	(-322,2)	(3,10)	(104,19)	(-326,15)	(-323,1)	(223,12)	(222,12)	(-329,4)	(237,6)	(-122,18)	(115,27)	(111,103)	(-319,1)	
L1D -114>	(-319,18)	(-323,2)	(-316,5)	(3,24)	(0,47)	(111,7)	(-314,13)	(-325,8)	(114,21)	(233,7)	(-322,6)	(-318,8)	(-329,10)	(-324,20)	(110,88)	(-327,7)	
L1D -113>	(-313,20)	(-324,54)	(113,49)	(0,49)	(-322,21)	(-317,26)	(-319,26)	(109,73)	(2,18)	(110,13)	(-124,1)	(-320,12)	(-318,9)	(111,9)	(-321,17)	(3,42)	
L1D -112>	(111,3)	(-125,7)	(107,1)	(0,47)	(-322,14)	(112,38)	(-339,2)	(108,97)	(113,2)	(101,39)	(116,2)	(-328,2)	(2,3)	(192,29)	(-326,3)	(-330,5)	
L1D -111>	(-3,44)	(3,78)	(-315,31)	(-320,17)	(107,67)	(-304,15)	(-335,1)	(111,36)	(-312,29)	(-309,9)	(-322,46)	(-308,26)	(-311,36)	(0,23)	(-319,10)	(-316,17)	
L1D -110>	(-327,44)	(0,44)	(-313,64)	(-310,49)	(-325,47)	(3,122)	(-3,77)	(110,111)	(-308,1)	(-319,43)	(-320,27)	(-316,58)	(108,33)	(113,53)	(111,34)	(106,61)	
L1D -109>	(111,3)	(110,24)	(0,29)	(104,5)	(108,27)	(109,48)	(106,21)	(-327,1)	(98,19)	(107,23)	(3,22)	(-3,12)	(-323,6)	(-331,2)	(105,86)	(-326,1)	
L1D -108>	(-320,41)	(-318,74)	(-310,38)	(111,113)	(-333,10)	(107,89)	(0,56)	(110,23)	(-313,53)	(-314,61)	(108,79)	(109,25)	(-324,11)	(-325,28)	(-319,1)	(-335,21)	
L1D -107>	(113,37)	(0,37)	(110,23)	(-300,4)	(107,85)	(3,48)	(108,16)	(112,1)	(-318,15)	(106,25)	(-313,31)	(-304,6)	(-310,17)	(-308,16)	(-316,5)	(103,65)	
L1D -106>	(0,48)	(106,116)	(98,2)	(101,5)	(-329,5)	(3,28)	(107,21)	(104,16)	(-131,2)	(105,23)	(102,122)	(110,6)	(-116,13)	(-3,13)	(6,3)	(-326,3)	
L1D -105>	(105,85)	(107,6)	(-321,12)	(106,19)	(111,18)	(0,11)	(102,6)	(-323,1)	(3,28)	(104,29)	(-320,11)	(-327,10)	(113,8)	(101,37)	(-306,3)	(-3,14)	
L1D -104>	(105,28)	(104,120)	(102,9)	(93,8)	(100,59)	(114,5)	(3,13)	(0,28)	(99,8)	(2,1)	(110,14)	(103,22)	(-112,9)	(101,4)	(-307,3)	(-3,18)	
L1D -103>	(0,18)	(-1,17)	(104,15)	(103,52)	(99,65)	(3,5)	(102,19)	(-3,3)	(-329,2)	(101,9)	(113,0)	(98,3)	(-314,5)	(-12,1)	(-119,8)	(107,1)	
L1D -102>	(-314,7)	(0,31)	(3,10)	(103,32)	(91,4)	(-120,6)	(102,88)	(99,12)	(107,1)	(101,35)	(98,105)	(100,13)	(111,12)	(110,9)	(-3,11)	(113,6)	
L1D -101>	(0,48)	(96,6)	(101,65)	(102,36)	(-3,21)	(99,14)	(-136,11)	(100,13)	(3,12)	(-5,5)	(-304,2)	(98,7)	(90,7)	(-362,2)	(97,111)	(-309,1)	
L1D -100>	(106,1)	(-122,3)	(0,18)	(101,23)	(96,81)	(3,14)	(-355,1)	(110,1)	(100,45)	(98,4)	(111,3)	(-11,1)	(115,1)	(99,25)	(-310,2)	(95,8)	
L1D -99>	(114,1)	(99,78)	(96,2)	(100,13)	(97,3)	(98,26)	(3,20)	(0,31)	(-138,7)	(88,4)	(-3,2)	(105,5)	(95,65)	(94,8)	(-5,2)	(-314,2)	
L1D -98>	(-3,11)	(99,37)	(3,39)	(85,35)	(110,2)	(97,46)	(98,95)	(-124,5)	(95,4)	(96,9)	(93,1)	(113,4)	(87,3)	(-125,3)	(94,12)	(102,3)	
L1D -97>	(-307,7)	(98,86)	(101,4)	(96,63)	(107,16)	(97,114)	(0,17)	(92,4)	(3,29)	(102,1)	(95,18)	(84,13)	(94,13)	(-3,9)	(93,23)	(-125,3)	
L1D -96>	(94,22)	(96,113)	(97,33)	(91,6)	(3,15)	(95,38)	(-126,2)	(92,6)	(-3,5)	(5,1)	(93,6)	(111,4)	(-307,4)	(106,1)	(98,3)	(0,3)	
L1D -95>	(0,4)	(96,37)	(-138,2)	(3,11)	(91,11)	(-128,12)	(95,83)	(101,2)	(93,22)	(92,8)	(89,1)	(-127,14)	(110,1)	(141,2)	(94,44)	(1,10)	
L1D -94>	(99,6)	(3,34)	(-304,6)	(95,90)	(94,87)	(-3,6)	(90,11)	(104,15)	(88,1)	(91,19)	(92,20)	(93,59)	(89,5)	(-1,15)	(100,11)	(-128,3)	
L1D -93>	(-129,5)	(93,111)	(94,30)	(3,10)	(90,13)	(92,36)	(91,13)	(-304,1)	(110,5)	(105,12)	(99,1)	(0,2)	(89,18)	(-130,3)	(86,2)	(-3,1)	
L1D -92>	(88,6)	(93,14)	(92,91)	(90,17)	(91,50)	(-3,19)	(-2,2)	(3,20)	(0,19)	(102,11)	(87,4)	(-130,2)	(98,9)	(-131,3)	(89,2)	(-1,3)	
L1D -91>	(3,65)	(0,5)	(90,52)	(91,108)	(106,7)	(92,14)	(-131,7)	(-3,4)	(87,18)	(97,8)	(86,2)	(-134,1)	(84,3)	(89,24)	(101,6)	(88,6)	
L1D -90>	(90,118)	(3,62)	(-1,3)	(91,45)	(-132,5)	(86,22)	(-133,7)	(105,2)	(88,49)	(96,3)	(89,43)	(-3,10)	(2,7)	(87,25)	(85,24)	(100,2)	
L1D -89>	(95,1)	(84,29)	(99,17)	(-3,14)	(0,24)	(86,27)	(85,26)	(89,112)	(100,19)	(3,7)	(87,29)	(90,36)	(103,2)	(88,33)	(-133,41)	(-135,5)	
L1D -88>	(3,31)	(88,110)	(94,14)	(84,57)	(87,114)	(-135,6)	(0,10)	(2,7)	(89,96)	(-3,23)	(-134,39)	(111,8)	(85,21)	(86,1)	(93,3)	(24,31)	
L1D -87>	(94,8)	(86,61)	(102,11)	(88,38)	(-1,26)	(87,105)	(84,22)	(2,21)	(110,7)	(85,4)	(-135,54)	(3,26)	(-3,8)	(93,13)	(-138,1)	(92,7)	
L1D -86>	(3,2)	(91,9)	(-137,5)	(0,25)	(86,79)	(87,4)	(98,1)	(-136,7)	(92,6)	(101,4)	(85,55)	(-3,4)	(84,5)	(1,10)	(97,9)	(-2,2)	
L1D -85>	(0,27)	(-1,9)	(84,96)	(24,2)	(91,13)	(85,122)	(-2,3)	(100,3)	(-3,50)	(1,1)	(92,1)	(-138,1)	(86,4)	(-256,21)	(-137,5)	(90,3)	
L1D -84>	(-113,0)	(85,2)	(-139,18)	(84,69)	(89,2)	(-138,8)	(-76,0)	(0,2)	(-3,3)	(99,2)	(2,0)	(97,0)	(114,1)	(-111,1)	(16,0)	(90,0)	
L1D -83>	(-3,29)	(-140,97)	(1,20)	(83,64)	(44,25)	(94,27)	(82,25)	(2,1)	(16,1)	(89,4)	(27,1)	(205,1)	(151,1)	(62,1)	(95,1)	(0,3)	
L1D -82>	(-3,19)	(82,69)	(81,1)	(101,1)	(47,2)	(-141,10)	(88,3)	(-26,1)	(63,1)	(117,1)	(66,2)	(85,1)	(64,1)	(-160,1)	(1,0)	(1,0)	
L1D -81>	(7,1)	(8,1)	(0,1)	(-146,1)	(1,0)	(1,0)	(1,0)	(1,0)	(1,0)	(1,0)	(1,0)	(1,0)	(1,0)	(1,0)	(1,0)	(1,0)	
L1D -80>	(0,7)	(335,1)	(2,13)	(80,3)	(-16,52)	(-3,7)	(-62,1)	(43,1)	(-42,1)	(60,1)	(113,1)	(-1,3)	(1,1)	(112,1)	(220,2)	(-53,1)	
L1D -79>	(2,25)	(-1,92)	(-43,1)	(120,1)	(-248,0)	(-256,0)	(79,0)	(1,0)	(1,0)	(1,0)	(1,0)	(1,0)	(1,0)	(1,0)	(1,0)	(1,0)	
L1D -78>	(15,1)	(0,3)	(-16,2)	(17,1)	(78,2)	(65,1)	(1,0)	(1,0)	(1,0)	(1,0)	(1,0)	(1,0)	(1,0)	(1,0)	(1,0)	(1,0)	
L1D -77>	(0,8)	(-1,3)	(-3,110)	(-2,3)	(222,1)	(-16,1)	(77,1)	(217,0)	(-25,0)	(-256,0)	(1,0)	(1,0)	(1,0)	(1,0)	(1,0)	(1,0)	
L1D -76>	(0,5)	(56,1)	(5,34)	(7,1)	(3,1)	(15,1)	(-112,2)	(71,2)	(136,1)	(-2,1)	(-144,1)	(119,1)	(1,0)	(1,0)	(1,0)	(1,0)	
L1D -75>	(-208,1)	(271,1)	(0,2)	(75,2)	(-8,1)	(-26,1)	(120,1)	(-2,1)	(369,1)	(1,0)	(1,0)	(1,0)	(1,0)	(1,0)	(1,0)	(1,0)	
L1D -74>	(339,1)	(-60,1)	(210,1)	(2,2)	(-32,8)	(136,1)	(-133,1)	(-35,1)	(4,1)	(0,2)	(88,1)	(60,1)	(1,0)	(1,0)	(1,0)	(1,0)	
L1D -73>	(-1,5)	(2,9)	(130,33)	(-49,1)	(-64,1)	(-65,1)	(25,1)	(-6,1)	(-47,2)	(91,1)	(0,2)	(9,1)	(-36,1)	(1,0)	(1,0)	(1,0)	
L1D -72>	(0,52)	(1,12)	(-1,2)	(88,42)	(-32,57)	(2,14)	(103,1)	(-3,12)	(-2,1)	(211,1)	(28,1)	(70,1)	(34,1)	(64,1)	(1,0)	(1,0)	
L1D -71>	(0,31)	(2,13)	(-1,70)	(-71,1)	(88,6)	(71,1)	(-32,2)	(1,114)	(204,1)	(-5,1)	(137,1)	(1,0)	(1,0)	(1,0)	(1,0)	(1,0)	
L1D -70>	(0,1)	(-32,0)	(1,79)	(-8,0)	(70,0)	(-137,0)	(31,0)	(111,0)	(-2,0)	(1,0)	(1,0)	(1,0)	(1,0)	(1,0)	(1,0)	(1,0)	
L1D -69>	(0,15)	(16,2)	(-1,6)	(-276,1)	(-3,80)	(-208,1)	(88,12)	(-16,1)	(44,1)	(31,1)	(85,1)	(67,1)	(-32,3)	(-2,3)	(-128,1)	(-339,1)	
L1D -68>	(52,1)	(0,5)	(-50,1)	(-17,1)	(396,1)	(14,1)	(59,1)	(64,1)	(-238,1)	(-93,1)	(1,0)	(1,0)	(1,0)	(1,0)	(1,0)	(1,0)	
L1D -67>	(67,2)	(168,1)	(0,4)	(-32,1)	(203,1)	(-406,1)	(370,1)	(-134,1)	(3,1)	(66,1)	(32,1)	(-122,1)	(24,1)	(-399,1)	(-58,1)	(139,1)	
L1D -66>	(66,6)	(-5,5)	(64,2)	(0,5)	(62,3)	(-241,1)	(202,2)	(-105,1)	(-3,13)	(-32,24)	(2,6)	(-8,3)	(-217,1)	(-347,1)	(88,5)	(63,2)	
L1D -65>	(65,2)	(-1,9)	(205,1)	(0,6)	(-32,28)	(-410,1)	(82,1)	(137,1)	(1,16)	(2,8)	(-5,5)	(35,1)	(29,1)	(23,1)	(77,1)	(36,1)	
L1D -64>	(1,117)	(66,1)	(65,1)	(-1,4)	(-194,1)	(88,30)	(-8,34)	(-16,26)	(0,11)	(2,10)	(-3,11)	(64,1)	(176,1)	(32,1)	(-2,1)	(-4,1)	
L1D -63>	(-1,43)	(3,16)	(2,6)	(88,0)	(0,3)	(1,80)	(-8,1)	(-2,0)	(-16,6)	(63,0)	(320,0)	(-15,0)	(-32,1)	(152,0)	(-3,0)	(198,0)	
L1D -62>	(1,79)	(0,20)	(62,5)	(64,2)	(39,2)	(-16,35)	(29,1)	(345,2)	(57,1)	(38,2)	(19,1)	(347,1)	(70,1)	(63,2)	(-5,1)	(-87,1)	
L1D -61>	(0,46)	(-1,6)	(1,68)	(-16,6)	(61,2)	(360,1)	(46,1)	(35,2)	(-3,87)	(336,1)	(27,1)	(-2,3)	(12,1)	(-8,11)	(127,1)	(454,2)	
L1D -60>	(60,6)	(21,2)	(1,38)	(448,1)	(451,1)	(40,1)	(339,1)	(64,4)	(0,8)	(466,4)	(-137,3)	(-43,1)	(61,2)	(333,2)	(353,1)	(47,1)	
L1D -59>	(1,30)	(290,2)	(-2,1)	(457,1)	(337,2)	(0,5)	(-128,1)	(-8,2)	(-5,6)	(203,1)	(28,2)	(355,1)	(20,1)	(51,1)	(343,1)	(-156,1)	
L1D -58>	(1,111)	(351,1)	(358,2)	(-7,1)	(58,1)	(-64,1)	(-8,1)	(0,14)	(-5,8)	(52,1)	(-6,1)	(340,3)	(66,0)	(337,0)	(53,0)	(42,1)	
L1D -57>	(1,60)	(462,7)	(451,3)	(-1,2)	(0,12)	(456,2)	(465,5)	(53,2)	(47,2)	(36,3)	(452,4)	(454,2)	(450,1)	(335,1)	(457,4)	(459,2)	
L1D -56>	(1,117)	(451,1)	(44,1)	(0,12)	(59,1)	(334,1)	(466,1)	(55,2)	(464,1)	(452,1)	(349,1)	(326,1)	(56,1)	(46,0)	(90,1)	(74,0)	
L1D -55>	(1,54)	(2,37)	(-1,105)	(0,33)	(47,1)	(452,2)	(357,2)	(22,1)	(463,2)	(353,9)	(360,5)	(347,3)	(460,3)	(461,1)	(464,1)	(345,4)	
L1D -54>	(466,7)	(10,4)	(1,48)	(2,1)	(-17,31)	(29,3)	(0,20)	(460,2)	(339,3)	(462,6)	(16,3)	(47,4)	(50,2)	(57,2)	(46,2)	(340,3)	
L1D -53>	(0,13)	(-1,1)	(53,1)	(6,1)	(-18,1)	(1,15)	(23,0)	(-17,17)	(358,4)	(355,0)	(41,0)	(-3,73)	(-12,0)	(460,0)	(466,1)	(-2,0)	
L1D -52>	(1,118)	(358,35)	(0,21)	(46,1)	(468,11)	(56,1)	(42,1)	(346,1)	(460,1)	(64,1)	(355,30)	(52,3)	(4,1)	(462,1)	(55,0)	(45,4)	
L1D -51>	(1,98)	(0,22)	(44,10)	(351,8)	(452,3)	(55,2)	(459,2)	(-12,2)	(40,1)	(57,2)	(352,1)	(346,4)	(465,11)	(203,1)	(-3,4)	(358,41)	
L1D -50>	(1,85)	(140,1)	(50,1)	(456,1)	(2,5)	(0,6)	(349,4)	(64,2)	(-1,2)	(-16,5)	(464,2)	(49,2)	(16,1)	(6,1)	(337,1)	(-40,1)	
L1D -49>	(0,9)	(46,8)	(1,55)	(461,15)	(-1,8)	(336,4)	(9,3)	(348,4)	(463,5)	(357,27)	(355,10)	(464,5)	(460,1)	(358,4)	(22,2)	(462,2)	
L1D -48>	(0,13)	(-1,54)	(85,20)	(-3,61)	(1,28)	(30,4)	(24,2)	(343,7)	(351,3)	(-40,26)	(-16,46)	(2,55)	(349,3)	(56,98)	(64,54)	(-8,45)	
L1D -47>	(1,78)	(47,23)	(56,6)	(-1,62)	(2,24)	(45,25)	(0,18)	(-17,18)	(61,2)	(340,1)	(343,1)	(351,2)	(-8,8)	(20,1)	(355,25)	(-18,3)	
L1D -46>	(44,8)	(0,23)	(355,37)	(4,46)	(-191,1)	(344,6)	(42,12)	(1,97)	(-1,12)	(47,13)	(54,4)	(335,4)	(36,5)	(29,5)	(-17,38)	(462,9)	
L1D -45>	(-1,11)	(1,71)	(23,3)	(0,45)	(-3,82)	(353,13)	(35,4)	(45,17)	(462,20)	(52,14)	(333,2)	(46,3)	(334,2)	(336,4)	(6,2)	(56,1)	
L1D -44>	(5,2)	(16,3)	(460,2)	(51,14)	(1,76)	(6,122)	(0,57)	(355,2)	(337,7)	(347,6)	(348,4)	(35,2)	(340,2)	(26,3)	(354,46)	(332,2)	
L1D -43>	(9,1)	(0,71)	(345,13)	(7,5)	(15,3)	(355,6)	(5,112)	(42,18)	(43,23)	(-2,6)	(41,44)	(339,5)	(461,19)	(1,26)	(12,3)	(354,8)	
L1D -42>	(2,2)	(1,14)	(36,4)	(354,2)	(47,2)	(41,6)	(0,5)	(42,10)	(43,119)	(-1,12)	(340,2)	(350,1)	(342,2)	(20,1)	(9,1)	(90,3)	
L1D -41>	(0,95)	(-1,25)	(1,33)	(51,1)	(41,31)	(42,25)	(-79,1)	(54,1)	(451,1)	(358,4)	(352,13)	(355,1)	(335,1)	(21,0)	(19,0)	(27,2)	
L1D -40>	(1,71)	(70,1)	(0,12)	(351,1)	(88,27)	(-1,3)	(-3,15)	(7,3)	(352,26)	(47,1)	(257,14)	(74,1)	(42,17)	(-2,21)	(17,3)	(457,4)	
L1D -39>	(1,24)	(2,23)	(-1,72)	(-64,1)	(0,3)	(39,1)	(309,1)	(351,0)	(458,1)	(27,1)	(343,1)	(-2,0)	(346,0)	(462,0)	(42,0)	(459,0)	
L1D -38>	(345,3)	(1,95)	(38,26)	(60,4)	(0,10)	(458,5)	(351,10)	(460,1)	(20,1)	(48,1)	(43,1)	(11,1)	(40,1)	(19,1)	(452,1)	(31,3)	
L1D -37>	(0,14)	(1,4)	(-1,1)	(343,1)	(36,2)	(357,1)	(-19,1)	(3,1)	(88,3)	(-2,13)	(-3,110)	(-83,1)	(13,1)	(22,5)	(5,1)	(-5,0)	
L1D -36>	(350,23)	(347,8)	(28,2)	(36,17)	(38,114)	(1,59)	(35,2)	(359,4)	(17,2)	(354,2)	(0,11)	(-6,2)	(41,2)	(340,2)	(341,1)	(55,1)	
L1D -35>	(0,16)	(57,7)	(1,111)	(35,61)	(34,81)	(340,4)	(343,13)	(43,1)	(347,4)	(350,42)	(19,5)	(341,6)	(349,43)	(52,8)	(-2,7)	(457,7)	
L1D -34>	(2,6)	(0,13)	(-439,1)	(1,20)	(33,69)	(34,44)	(35,2)	(462,1)	(454,1)	(-32,1)	(-1,2)	(-88,9)	(459,1)	(-16,4)	(-8,3)	(39,5)	
L1D -33>	(19,4)	(345,0)	(33,69)	(34,33)	(1,16)	(342,0)	(0,5)	(333,0)	(339,0)	(43,0)	(42,0)	(31,0)	(-1,2)	(6,0)	(2,0)	(349,0)	
L1D -32>	(1,51)	(0,12)	(-222,4)	(16,2)	(-16,115)	(-1,24)	(2,35)	(-3,45)	(352,3)	(45,2)	(24,14)	(357,2)	(-378,19)	(-8,66)	(455,1)	(452,3)	
L1D -31>	(1,106)	(449,2)	(16,6)	(452,3)	(-222,4)	(29,3)	(0,13)	(12,2)	(25,5)	(36,3)	(31,2)	(-16,9)	(455,1)	(2,9)	(-1,24)	(-6,4)	
L1D -30>	(0,37)	(-2,11)	(1,65)	(48,1)	(-222,14)	(35,4)	(29,3)	(353,3)	(-87,2)	(27,3)	(-1,8)	(462,3)	(30,5)	(-89,2)	(347,21)	(-93,2)	
L1D -29>	(0,35)	(-1,10)	(1,77)	(343,4)	(-16,11)	(48,3)	(454,6)	(-98,1)	(-97,4)	(25,3)	(-223,3)	(-222,8)	(46,3)	(-3,7)	(334,5)	(347,20)	
L1D -28>	(1,99)	(346,3)	(347,1)	(349,1)	(128,0)	(343,2)	(16,0)	(6,0)	(0,4)	(454,0)	(10,3)	(451,0)	(333,0)	(452,0)	(2,0)	(356,0)	
L1D -27>	(34,3)	(452,4)	(17,3)	(9,5)	(1,87)	(4,19)	(2,29)	(12,3)	(342,10)	(24,26)	(27,12)	(0,8)	(450,1)	(41,2)	(21,10)	(346,12)	
L1D -26>	(26,18)	(27,4)	(1,115)	(-5,3)	(-8,40)	(-1,2)	(21,36)	(25,5)	(22,1)	(2,15)	(40,1)	(0,12)	(-6,23)	(24,51)	(23,2)	(-24,3)	
L1D -25>	(335,1)	(5,5)	(13,4)	(24,21)	(21,16)	(2,5)	(20,19)	(344,7)	(345,3)	(0,8)	(1,18)	(-6,103)	(-8,2)	(25,6)	(22,5)	(351,2)	
L1D -24>	(-8,9)	(1,5)	(27,6)	(24,70)	(-5,0)	(20,15)	(26,14)	(25,14)	(22,12)	(21,26)	(344,3)	(4,5)	(-24,9)	(56,2)	(-6,27)	(2,3)	
L1D -23>	(1,87)	(42,3)	(0,17)	(21,6)	(24,14)	(25,3)	(-4,1)	(-1,114)	(41,13)	(2,40)	(-8,4)	(34,28)	(12,3)	(56,4)	(462,2)	(23,7)	
L1D -22>	(0,46)	(1,110)	(20,15)	(26,29)	(27,4)	(25,11)	(35,1)	(2,96)	(343,4)	(21,35)	(23,48)	(-1,49)	(-3,9)	(24,79)	(357,2)	(22,64)	
L1D -21>	(0,14)	(24,41)	(1,37)	(-3,68)	(20,9)	(21,19)	(25,6)	(-1,4)	(356,2)	(26,15)	(22,5)	(58,1)	(27,3)	(2,5)	(339,3)	(-8,2)	
L1D -20>	(0,59)	(1,93)	(25,30)	(26,7)	(-1,65)	(20,43)	(24,78)	(-5,10)	(452,1)	(4,8)	(-4,46)	(-2,53)	(21,43)	(43,4)	(-6,13)	(257,3)	
L1D -19>	(50,10)	(1,115)	(0,61)	(31,5)	(-3,32)	(43,4)	(42,6)	(335,3)	(-275,1)	(-1,9)	(336,11)	(58,1)	(333,6)	(35,1)	(342,8)	(451,1)	
L1D -18>	(341,7)	(1,78)	(4,86)	(-3,21)	(0,11)	(6,3)	(-4,5)	(-1,13)	(-8,21)	(15,7)	(-35,1)	(2,40)	(8,2)	(-16,5)	(344,4)	(-32,1)	
L1D -17>	(1,111)	(-5,1)	(-3,2)	(-4,10)	(212,3)	(-403,2)	(52,1)	(0,8)	(337,2)	(-1,9)	(6,3)	(51,1)	(340,1)	(5,1)	(2,0)	(16,2)	
L1D -16>	(16,62)	(0,65)	(-2,3)	(-222,16)	(1,78)	(-4,13)	(271,1)	(2,27)	(-3,29)	(-32,16)	(-1,12)	(10,2)	(-16,26)	(-24,9)	(8,7)	(-8,89)	
L1D -15>	(0,58)	(16,12)	(1,81)	(4,8)	(-33,1)	(-436,1)	(-1,68)	(2,29)	(-8,5)	(50,1)	(340,2)	(298,3)	(113,1)	(-48,2)	(9,14)	(-32,1)	
L1D -14>	(0,9)	(-100,3)	(-101,1)	(1,29)	(-96,1)	(-108,3)	(-109,2)	(4,25)	(17,4)	(-110,3)	(14,127)	(16,21)	(-98,2)	(13,3)	(2,6)	(5,1)	
L1D -13>	(0,7)	(1,21)	(4,7)	(15,17)	(-3,30)	(338,1)	(-94,1)	(17,1)	(13,116)	(-1,1)	(12,6)	(16,24)	(27,10)	(-5,1)	(-8,4)	(5,1)	
L1D -12>	(325,2)	(-5,13)	(15,19)	(26,19)	(12,126)	(309,7)	(11,10)	(14,20)	(324,6)	(2,15)	(1,43)	(331,21)	(308,16)	(6,24)	(319,19)	(329,24)	
L1D -11>	(-222,37)	(307,22)	(1,109)	(13,44)	(310,1)	(5,44)	(11,36)	(315,18)	(10,30)	(0,14)	(6,77)	(317,41)	(-5,14)	(25,32)	(328,24)	(323,41)	
L1D -10>	(-6,1)	(337,3)	(-5,11)	(2,36)	(1,46)	(-1,9)	(-2,4)	(4,87)	(-10,6)	(5,1)	(6,4)	(466,1)	(-8,8)	(308,1)	(-16,3)	(-24,0)	
L1D -9>	(-8,11)	(4,19)	(0,41)	(1,86)	(-5,4)	(-1,20)	(-403,1)	(-7,8)	(43,1)	(2,6)	(213,1)	(-180,1)	(-192,0)	(15,5)	(9,1)	(3,1)	
L1D -8>	(16,5)	(-2,2)	(4,33)	(-32,2)	(0,6)	(-5,1)	(-1,5)	(-8,84)	(8,31)	(-88,1)	(-3,22)	(2,36)	(-16,8)	(1,4)	(-92,1)	(-24,2)	
L1D -7>	(2,10)	(-222,25)	(1,22)	(-105,1)	(-1,43)	(0,79)	(4,46)	(10,9)	(-63,3)	(-87,1)	(-8,13)	(-98,5)	(9,2)	(16,4)	(-100,1)	(-104,1)	
L1D -6>	(319,2)	(312,2)	(329,2)	(-1,11)	(0,9)	(-2,10)	(196,2)	(4,33)	(6,9)	(-5,5)	(-6,4)	(2,4)	(1,77)	(328,1)	(324,2)	(9,4)	
L1D -5>	(307,2)	(-8,6)	(0,5)	(1,92)	(-1,10)	(4,7)	(318,12)	(-3,15)	(-4,13)	(319,7)	(6,27)	(5,5)	(315,4)	(-407,1)	(2,10)	(3,12)	
L1D -4>	(25,4)	(-5,16)	(-2,5)	(24,7)	(20,5)	(2,97)	(-4,17)	(3,13)	(-233,5)	(1,49)	(316,1)	(6,5)	(21,7)	(0,116)	(-1,16)	(22,3)	
L1D -3>	(0,19)	(-215,2)	(110,5)	(-209,1)	(20,2)	(10,1)	(-5,11)	(-2,4)	(1,124)	(21,1)	(-3,3)	(-7,5)	(111,2)	(-353,1)	(-354,1)	(-6,15)	
L1D -2>	(-2,14)	(-1,18)	(-36,3)	(1,83)	(2,14)	(-6,7)	(-5,4)	(-24,2)	(3,20)	(0,37)	(6,1)	(-4,2)	(-41,5)	(-237,1)	(4,3)	(-23,0)	
L1D -1>	(-7,2)	(-318,1)	(-1,15)	(-2,2)	(212,1)	(10,6)	(-5,3)	(-3,13)	(112,1)	(0,56)	(2,7)	(-125,1)	(-206,1)	(21,1)	(-6,1)	(1,100)	
L1D 0>	(-6,8)	(15,5)	(318,1)	(0,82)	(-8,1)	(1,25)	(-4,4)	(19,1)	(-1,7)	(9,2)	(2,9)	(-5,3)	(-3,2)	(3,3)	(-7,3)	(-222,1)	
L1D 1>	(-1,17)	(1,109)	(305,1)	(-2,3)	(-3,9)	(-6,1)	(-4,4)	(107,1)	(2,8)	(4,3)	(317,1)	(322,1)	(0,22)	(5,5)	(3,9)	(8,2)	
L1D 2>	(1,117)	(433,2)	(0,35)	(-3,34)	(-2,16)	(10,2)	(-7,5)	(311,1)	(-1,4)	(-423,1)	(97,2)	(2,12)	(-5,21)	(-4,5)	(-8,2)	(-9,7)	
L1D 3>	(105,4)	(1,109)	(5,3)	(0,35)	(3,23)	(-3,19)	(-1,9)	(2,35)	(-414,3)	(107,10)	(-5,1)	(-6,111)	(-9,19)	(110,23)	(113,14)	(111,7)	
L1D 4>	(-15,16)	(1,83)	(-237,57)	(-6,41)	(-1,3)	(-116,2)	(-5,15)	(-7,36)	(6,4)	(-121,1)	(-9,1)	(-122,2)	(-4,4)	(10,1)	(-106,2)	(-114,5)	
L1D 5>	(-6,86)	(0,29)	(-11,57)	(6,18)	(313,8)	(-12,7)	(5,12)	(421,1)	(304,5)	(-107,6)	(-5,124)	(324,4)	(1,37)	(321,4)	(10,19)	(307,2)	
L1D 6>	(1,8)	(5,77)	(326,2)	(318,3)	(-5,1)	(-6,3)	(-1,8)	(311,1)	(0,7)	(-3,2)	(305,1)	(322,1)	(321,6)	(-7,4)	(325,1)	(-11,21)	
L1D 7>	(-71,10)	(-2,56)	(-7,123)	(-1,62)	(-53,11)	(3,11)	(-4,5)	(315,1)	(-6,16)	(-5,23)	(1,16)	(-70,64)	(5,20)	(6,51)	(328,23)	(8,14)	
L1D 8>	(-420,1)	(6,4)	(-6,1)	(1,104)	(0,3)	(8,6)	(-415,1)	(-16,45)	(-8,1)	(195,1)	(327,1)	(-106,1)	(-9,3)	(-116,2)	(5,2)	(-111,0)	
L1D 9>	(-111,1)	(203,1)	(-2,13)	(-4,4)	(-9,7)	(5,4)	(0,3)	(-5,5)	(-8,93)	(-415,2)	(-1,65)	(6,9)	(1,12)	(-6,2)	(-114,1)	(327,2)	
L1D 10>	(-121,3)	(6,7)	(-4,16)	(-2,35)	(-1,117)	(-5,23)	(-113,1)	(2,40)	(-6,2)	(-116,1)	(-101,1)	(326,2)	(5,1)	(-122,2)	(-123,1)	(-106,2)	
L1D 11>	(-3,13)	(-101,1)	(-10,83)	(5,17)	(-11,27)	(311,7)	(-6,68)	(307,7)	(312,8)	(1,12)	(6,23)	(315,9)	(2,61)	(0,19)	(-12,14)	(422,8)	
L1D 12>	(1,26)	(-12,45)	(-11,94)	(-22,1)	(5,11)	(-15,3)	(0,36)	(-234,14)	(-62,4)	(-5,12)	(-1,18)	(-16,7)	(-54,6)	(14,10)	(-6,7)	(-98,2)	
L1D 13>	(-12,109)	(-3,1)	(-119,1)	(-13,11)	(0,13)	(-7,24)	(3,3)	(-6,1)	(-133,1)	(-11,13)	(325,1)	(2,9)	(14,1)	(1,6)	(13,1)	(-1,2)	
L1D 14>	(-14,57)	(0,4)	(3,3)	(-122,3)	(2,8)	(-13,108)	(-117,1)	(-113,2)	(-12,19)	(-7,7)	(-8,5)	(4,1)	(-11,3)	(-115,2)	(324,2)	(-1,4)	
L1D 15>	(-106,1)	(-14,96)	(-100,1)	(-114,1)	(0,1)	(-11,1)	(-7,5)	(-99,2)	(-111,2)	(-102,1)	(-121,2)	(-122,2)	(-8,4)	(-112,1)	(-1,48)	(2,4)	
L1D 16>	(-11,6)	(5,6)	(-6,4)	(34,9)	(323,3)	(-7,121)	(-8,48)	(0,7)	(-5,5)	(-15,24)	(-4,1)	(54,8)	(-14,121)	(-3,8)	(-9,13)	(-1,19)	
L1D 17>	(2,3)	(-409,5)	(-8,79)	(-9,15)	(-113,2)	(-5,2)	(-414,2)	(-4,8)	(323,4)	(-16,6)	(5,6)	(-1,46)	(0,6)	(-11,3)	(-21,1)	(6,4)	
L1D 18>	(0,7)	(11,1)	(102,1)	(1,81)	(5,5)	(-11,2)	(100,1)	(66,0)	(-9,6)	(322,6)	(323,0)	(319,7)	(-6,1)	(6,6)	(-5,2)	(-41,1)	
L1D 19>	(-1,19)	(-18,12)	(-5,30)	(1,50)	(-11,40)	(-3,106)	(0,17)	(-32,10)	(-8,1)	(-2,4)	(322,31)	(397,9)	(6,47)	(-6,27)	(5,29)	(11,4)	
L1D 20>	(0,8)	(-20,111)	(-16,30)	(-17,20)	(-19,3)	(34,1)	(1,15)	(-408,1)	(339,1)	(-5,1)	(2,0)	(-6,7)	(6,2)	(-4,0)	(-11,7)	(-1,3)	
L1D 21>	(0,1)	(-18,46)	(-17,46)	(-21,118)	(4,1)	(-20,9)	(420,7)	(-11,7)	(-6,4)	(-2,4)	(6,1)	(5,1)	(1,1)	(-5,12)	(321,38)	(-4,5)	
L1D 22>	(-1,5)	(-11,3)	(-6,8)	(-22,71)	(-8,9)	(-7,2)	(-20,2)	(-5,1)	(2,1)	(-21,14)	(-19,15)	(-25,4)	(321,5)	(-18,16)	(-2,0)	(-24,2)	
L1D 23>	(1,24)	(-20,7)	(-30,13)	(428,1)	(-138,1)	(-22,22)	(11,25)	(-1,5)	(-24,2)	(-11,10)	(6,95)	(320,36)	(-5,24)	(-23,42)	(-19,17)	(-8,15)	
L1D 24>	(-329,1)	(2,5)	(-24,106)	(-21,21)	(-20,18)	(-23,1)	(42,2)	(6,3)	(90,5)	(-5,3)	(-80,4)	(1,5)	(-8,3)	(24,6)	(66,1)	(5,4)	
L1D 25>	(-1,91)	(-5,4)	(1,20)	(-21,9)	(-22,7)	(11,3)	(24,2)	(-134,1)	(5,9)	(-4,5)	(2,5)	(319,4)	(-6,7)	(-25,29)	(0,5)	(-8,7)	
L1D 26>	(-1,19)	(-2,66)	(-4,3)	(1,19)	(-5,12)	(-8,10)	(-22,4)	(-26,33)	(5,10)	(-6,1)	(318,8)	(319,1)	(11,1)	(-23,6)	(-11,7)	(6,8)	
L1D 27>	(-1,30)	(0,3)	(-6,24)	(-3,83)	(-130,1)	(1,13)	(-10,2)	(-11,13)	(-25,107)	(318,13)	(-2,1)	(-5,21)	(5,25)	(-23,5)	(-27,21)	(24,10)	
L1D 28>	(-1,22)	(-11,16)	(-251,9)	(-126,3)	(-128,1)	(1,84)	(0,5)	(318,8)	(-67,1)	(-6,1)	(-27,25)	(-26,28)	(5,6)	(-114,2)	(-122,1)	(-117,2)	
L1D 29>	(-1,19)	(317,27)	(-62,1)	(-11,12)	(1,76)	(-28,91)	(-29,1)	(-30,1)	(-6,11)	(-438,1)	(6,0)	(-251,3)	(-252,2)	(0,1)	(-31,0)	(-5,12)	
L1D 30>	(-253,6)	(-29,10)	(-48,7)	(1,65)	(-252,6)	(-34,0)	(-6,8)	(-11,16)	(316,2)	(0,8)	(-1,21)	(317,5)	(-21,1)	(-5,3)	(314,6)	(11,2)	
L1D 31>	(-6,11)	(11,15)	(1,3)	(-30,5)	(-1,12)	(-5,49)	(0,3)	(-4,1)	(-253,10)	(-32,4)	(-254,6)	(-122,1)	(208,1)	(-123,1)	(316,3)	(-11,50)	
L1D 32>	(-403,1)	(-31,7)	(-254,24)	(0,91)	(-11,57)	(-5,53)	(315,26)	(6,56)	(1,52)	(-33,29)	(5,11)	(-6,11)	(-2,9)	(11,4)	(415,2)	(-46,3)	
L1D 33>	(314,0)	(1,92)	(-33,64)	(0,126)	(-34,9)	(-1,32)	(11,1)	(-11,5)	(-6,7)	(6,1)	(-32,2)	(222,4)	(-277,0)	(-26,0)	(2,2)	(1,0)	
L1D 34>	(5,11)	(-1,67)	(1,13)	(-34,35)	(0,54)	(-35,12)	(-33,8)	(-20,15)	(-257,1)	(314,7)	(-5,8)	(-11,6)	(-399,1)	(6,7)	(-32,0)	(-6,0)	
L1D 35>	(0,73)	(422,3)	(-35,3)	(424,3)	(1,6)	(11,10)	(-1,71)	(-34,40)	(-2,6)	(6,1)	(-3,120)	(5,31)	(-5,47)	(-11,86)	(-6,47)	(314,15)	
L1D 36>	(-6,22)	(1,58)	(306,1)	(2,20)	(-36,8)	(-43,1)	(427,1)	(311,1)	(5,9)	(-2,2)	(-11,57)	(11,13)	(16,1)	(54,2)	(-5,6)	(-37,3)	
L1D 37>	(1,23)	(313,78)	(-11,40)	(6,2)	(-36,4)	(5,2)	(423,2)	(168,1)	(11,2)	(-9,1)	(-5,14)	(-37,3)	(-6,4)	(0,5)	(-55,1)	(142,1)	
L1D 38>	(1,3)	(2,2)	(312,26)	(-37,1)	(-2,103)	(5,2)	(-6,30)	(-5,22)	(-72,1)	(-11,14)	(313,9)	(-40,7)	(11,1)	(0,4)	(-39,1)	(-156,1)	
L1D 39>	(1,22)	(-2,25)	(-5,1)	(11,6)	(218,32)	(6,58)	(5,2)	(-11,33)	(-35,1)	(312,49)	(0,9)	(246,1)	(2,1)	(9,1)	(-51,1)	(-3,3)	
L1D 40>	(5,59)	(-42,14)	(-41,16)	(1,11)	(-11,47)	(-6,55)	(217,9)	(-47,3)	(311,21)	(-39,3)	(-40,1)	(11,8)	(-1,5)	(0,38)	(-5,64)	(6,60)	
L1D 41>	(-11,62)	(1,81)	(-41,10)	(0,47)	(311,10)	(-40,20)	(5,9)	(-5,3)	(-42,2)	(11,9)	(-47,3)	(304,1)	(-6,12)	(2,1)	(6,6)	(-1,10)	
L1D 42>	(6,24)	(5,8)	(-5,1)	(-1,81)	(-42,43)	(0,34)	(1,11)	(297,1)	(-11,69)	(-34,35)	(-41,4)	(-3,4)	(-40,18)	(11,4)	(310,6)	(-6,3)	
L1D 43>	(-42,92)	(5,17)	(-1,11)	(-6,11)	(-5,9)	(-11,23)	(1,10)	(0,5)	(11,2)	(-2,93)	(-40,1)	(2,2)	(12,1)	(6,17)	(-34,2)	(310,9)	
L1D 44>	(3,0)	(5,3)	(7,67)	(12,0)	(-63,1)	(310,3)	(6,2)	(-6,10)	(-35,0)	(11,0)	(-44,2)	(-36,0)	(-2,5)	(-34,1)	(-64,0)	(-11,4)	
L1D 45>	(-46,5)	(-2,19)	(-59,1)	(-5,26)	(-65,14)	(1,25)	(0,6)	(11,2)	(309,65)	(-64,85)	(-11,40)	(-45,9)	(-1,1)	(-34,1)	(-3,4)	(-47,26)	
L1D 46>	(0,6)	(-6,38)	(416,43)	(308,7)	(-45,1)	(-3,33)	(-47,3)	(309,47)	(1,4)	(-1,12)	(24,22)	(-46,3)	(-11,73)	(11,14)	(-40,6)	(419,2)	
L1D 47>	(208,26)	(-5,7)	(-11,50)	(-1,39)	(-46,4)	(-6,19)	(1,6)	(413,2)	(6,3)	(-36,1)	(-47,8)	(308,10)	(11,22)	(2,1)	(-45,10)	(31,1)	
L1D 48>	(0,19)	(6,57)	(1,5)	(308,1)	(-6,8)	(307,39)	(-1,11)	(197,41)	(-11,27)	(5,33)	(-3,14)	(-32,39)	(412,36)	(305,9)	(11,7)	(-40,53)	
L1D 49>	(417,3)	(1,7)	(-11,38)	(-1,60)	(0,11)	(-6,56)	(412,2)	(5,91)	(11,5)	(6,16)	(307,56)	(-32,7)	(24,1)	(-5,52)	(415,1)	(-40,4)	
L1D 50>	(1,9)	(0,8)	(225,1)	(6,119)	(-10,2)	(-11,34)	(5,16)	(11,4)	(-64,23)	(306,65)	(307,16)	(-5,5)	(-50,2)	(-51,1)	(-8,1)	(-3,5)	
L1D 51>	(-35,1)	(1,1)	(-5,11)	(6,34)	(-6,10)	(0,2)	(5,26)	(-7,86)	(-11,4)	(306,30)	(-51,2)	(-70,1)	(303,1)	(-3,12)	(-32,3)	(-40,0)	
L1D 52>	(-5,5)	(-72,6)	(-6,26)	(1,80)	(303,1)	(-71,110)	(0,7)	(-11,47)	(-54,28)	(-4,2)	(5,19)	(-66,4)	(6,20)	(-52,3)	(413,23)	(306,19)	
L1D 53>	(0,18)	(-6,56)	(1,35)	(407,42)	(-5,32)	(343,1)	(409,44)	(393,1)	(305,7)	(-11,62)	(-31,1)	(-42,2)	(-29,1)	(-33,1)	(-34,1)	(-1,2)	
L1D 54>	(-13,1)	(1,2)	(-6,9)	(18,1)	(0,6)	(307,1)	(6,2)	(5,1)	(-11,22)	(304,90)	(-5,21)	(-40,35)	(194,17)	(301,16)	(-62,2)	(-54,1)	
L1D 55>	(0,4)	(48,1)	(6,4)	(1,2)	(-6,45)	(-1,1)	(411,1)	(5,3)	(-35,3)	(-11,12)	(307,1)	(153,1)	(304,65)	(-55,1)	(-52,1)	(-56,5)	
L1D 56>	(-1,13)	(-290,67)	(154,1)	(304,1)	(0,9)	(-11,81)	(-282,46)	(-62,35)	(-106,21)	(-16,56)	(-48,2)	(48,23)	(2,27)	(-3,31)	(55,1)	(-56,3)	
L1D 57>	(2,12)	(-1,9)	(-282,4)	(-6,3)	(1,1)	(-11,104)	(48,15)	(-16,3)	(-8,2)	(-4,1)	(34,1)	(-57,2)	(-290,2)	(-10,1)	(0,5)	(1,0)	
L1D 58>	(0,9)	(-6,2)	(-1,1)	(1,1)	(-11,69)	(55,1)	(-290,2)	(-62,1)	(296,1)	(-282,2)	(-57,1)	(-136,1)	(-56,1)	(1,0)	(1,0)	(1,0)	
L1D 59>	(0,14)	(-1,4)	(-11,68)	(-2,2)	(48,14)	(-6,37)	(-106,12)	(35,2)	(-282,9)	(-10,2)	(-290,4)	(203,1)	(-258,1)	(-33,1)	(-16,3)	(-215,1)	
L1D 60>	(1,37)	(-1,3)	(-2,1)	(-11,33)	(-60,3)	(-8,3)	(140,1)	(0,4)	(185,1)	(-30,1)	(-190,1)	(158,1)	(216,1)	(34,1)	(-75,1)	(393,1)	
L1D 61>	(0,17)	(1,11)	(-11,8)	(-215,1)	(-78,1)	(-61,4)	(239,1)	(4,1)	(12,1)	(-76,3)	(-58,1)	(-80,2)	(298,1)	(-63,1)	(133,1)	(216,1)	
L1D 62>	(-80,1)	(-197,1)	(0,10)	(-62,8)	(-64,2)	(2,1)	(4,2)	(369,1)	(-128,6)	(-203,1)	(251,1)	(74,1)	(-1,1)	(64,1)	(411,1)	(21,1)	
L1D 63>	(-4,1)	(-210,1)	(-78,1)	(-48,3)	(-197,1)	(-46,3)	(-10,2)	(-50,2)	(-8,1)	(0,6)	(-160,1)	(254,1)	(-76,1)	(212,1)	(-63,5)	(-12,3)	
L1D 64>	(-1,4)	(-50,1)	(2,15)	(-4,4)	(1,1)	(0,10)	(93,1)	(66,1)	(18,1)	(-36,1)	(-134,1)	(-128,52)	(-72,35)	(-140,1)	(-32,3)	(-3,16)	
L1D 65>	(2,19)	(-128,3)	(-1,79)	(-43,1)	(-390,1)	(241,1)	(-72,12)	(-69,1)	(-35,1)	(22,1)	(-175,1)	(-20,1)	(0,1)	(-50,1)	(-58,1)	(-52,1)	
L1D 66>	(260,1)	(-1,4)	(145,2)	(0,14)	(-4,1)	(2,19)	(-26,43)	(-324,1)	(-130,1)	(-3,11)	(-63,1)	(-128,3)	(309,1)	(-32,1)	(-61,1)	(-2,2)	
L1D 67>	(0,21)	(-26,1)	(2,4)	(-72,13)	(-3,81)	(-128,9)	(13,1)	(-2,2)	(197,1)	(-35,1)	(-6,1)	(-172,1)	(-50,1)	(-1,1)	(-67,1)	(-272,1)	
L1D 68>	(-30,1)	(185,1)	(-65,1)	(0,6)	(17,1)	(128,1)	(-74,1)	(-9,1)	(-475,1)	(-102,1)	(-34,1)	(-299,1)	(1,0)	(1,0)	(1,0)	(1,0)	
L1D 69>	(0,8)	(-32,1)	(119,1)	(-69,1)	(-26,7)	(185,1)	(140,1)	(-181,1)	(-1,1)	(-50,1)	(58,1)	(132,1)	(50,1)	(-348,1)	(-62,1)	(8,1)	
L1D 70>	(62,1)	(0,6)	(-60,1)	(-71,1)	(-8,4)	(-64,1)	(-2,1)	(2,3)	(-138,1)	(1,1)	(-70,1)	(-77,1)	(1,0)	(1,0)	(1,0)	(1,0)	
L1D 71>	(-82,1)	(-8,2)	(-70,3)	(-32,1)	(-55,1)	(-73,1)	(-94,1)	(-320,1)	(0,2)	(-3,1)	(-368,1)	(-13,1)	(-47,1)	(-329,1)	(1,0)	(1,0)	
L1D 72>	(-8,44)	(-80,1)	(-72,1)	(0,2)	(-3,5)	(2,15)	(-2,1)	(-1,3)	(1,0)	(1,0)	(1,0)	(1,0)	(1,0)	(1,0)	(1,0)	(1,0)	
L1D 73>	(-1,112)	(2,27)	(1,2)	(-8,4)	(-134,1)	(169,1)	(0,2)	(-91,1)	(-321,1)	(3,1)	(132,1)	(-73,1)	(171,1)	(1,0)	(1,0)	(1,0)	
L1D 74>	(-107,1)	(-8,26)	(0,4)	(-70,3)	(-138,1)	(-74,1)	(-101,1)	(118,2)	(-34,1)	(30,1)	(-1,1)	(-411,1)	(1,0)	(1,0)	(1,0)	(1,0)	
L1D 75>	(0,17)	(-75,2)	(-1,6)	(-21,1)	(-3,126)	(-139,1)	(-67,1)	(-35,1)	(-8,4)	(32,1)	(26,1)	(1,0)	(1,0)	(1,0)	(1,0)	(1,0)	
L1D 76>	(0,21)	(1,1)	(-76,2)	(-1,1)	(-102,1)	(-84,1)	(-34,1)	(-122,1)	(186,1)	(-4,1)	(66,1)	(64,1)	(-91,1)	(1,0)	(1,0)	(1,0)	
L1D 77>	(0,3)	(-8,5)	(-3,6)	(88,1)	(-2,3)	(64,1)	(-37,1)	(-79,1)	(1,0)	(1,0)	(1,0)	(1,0)	(1,0)	(1,0)	(1,0)	(1,0)	
[...]
L1D 476>	(0,2)	(1,0)	(1,0)	(1,0)	(1,0)	(1,0)	(1,0)	(1,0)	(1,0)	(1,0)	(1,0)	(1,0)	(1,0)	(1,0)	(1,0)	(1,0)	
L1D 477>	(-64,1)	(0,2)	(-36,1)	(-33,1)	(1,0)	(1,0)	(1,0)	(1,0)	(1,0)	(1,0)	(1,0)	(1,0)	(1,0)	(1,0)	(1,0)	(1,0)	
L1D 478>	(1,0)	(1,0)	(1,0)	(1,0)	(1,0)	(1,0)	(1,0)	(1,0)	(1,0)	(1,0)	(1,0)	(1,0)	(1,0)	(1,0)	(1,0)	(1,0)	
L1D 479>	(0,1)	(-140,1)	(1,0)	(1,0)	(1,0)	(1,0)	(1,0)	(1,0)	(1,0)	(1,0)	(1,0)	(1,0)	(1,0)	(1,0)	(1,0)	(1,0)	
L1D 480>	(1,0)	(1,0)	(1,0)	(1,0)	(1,0)	(1,0)	(1,0)	(1,0)	(1,0)	(1,0)	(1,0)	(1,0)	(1,0)	(1,0)	(1,0)	(1,0)	
L1D 481>	(1,0)	(1,0)	(1,0)	(1,0)	(1,0)	(1,0)	(1,0)	(1,0)	(1,0)	(1,0)	(1,0)	(1,0)	(1,0)	(1,0)	(1,0)	(1,0)	
L1D 482>	(1,0)	(1,0)	(1,0)	(1,0)	(1,0)	(1,0)	(1,0)	(1,0)	(1,0)	(1,0)	(1,0)	(1,0)	(1,0)	(1,0)	(1,0)	(1,0)	
L1D 483>	(1,0)	(1,0)	(1,0)	(1,0)	(1,0)	(1,0)	(1,0)	(1,0)	(1,0)	(1,0)	(1,0)	(1,0)	(1,0)	(1,0)	(1,0)	(1,0)	
L1D 484>	(1,0)	(1,0)	(1,0)	(1,0)	(1,0)	(1,0)	(1,0)	(1,0)	(1,0)	(1,0)	(1,0)	(1,0)	(1,0)	(1,0)	(1,0)	(1,0)	
L1D 485>	(1,0)	(1,0)	(1,0)	(1,0)	(1,0)	(1,0)	(1,0)	(1,0)	(1,0)	(1,0)	(1,0)	(1,0)	(1,0)	(1,0)	(1,0)	(1,0)	
L1D 486>	(1,0)	(1,0)	(1,0)	(1,0)	(1,0)	(1,0)	(1,0)	(1,0)	(1,0)	(1,0)	(1,0)	(1,0)	(1,0)	(1,0)	(1,0)	(1,0)	
L1D 487>	(1,0)	(1,0)	(1,0)	(1,0)	(1,0)	(1,0)	(1,0)	(1,0)	(1,0)	(1,0)	(1,0)	(1,0)	(1,0)	(1,0)	(1,0)	(1,0)	
L1D 488>	(1,0)	(1,0)	(1,0)	(1,0)	(1,0)	(1,0)	(1,0)	(1,0)	(1,0)	(1,0)	(1,0)	(1,0)	(1,0)	(1,0)	(1,0)	(1,0)	
L1D 489>	(-1,33)	(2,1)	(1,0)	(1,0)	(1,0)	(1,0)	(1,0)	(1,0)	(1,0)	(1,0)	(1,0)	(1,0)	(1,0)	(1,0)	(1,0)	(1,0)	
L1D 490>	(1,0)	(1,0)	(1,0)	(1,0)	(1,0)	(1,0)	(1,0)	(1,0)	(1,0)	(1,0)	(1,0)	(1,0)	(1,0)	(1,0)	(1,0)	(1,0)	
L1D 491>	(-1,12)	(1,0)	(1,0)	(1,0)	(1,0)	(1,0)	(1,0)	(1,0)	(1,0)	(1,0)	(1,0)	(1,0)	(1,0)	(1,0)	(1,0)	(1,0)	
L1D 492>	(0,2)	(-3,41)	(1,0)	(1,0)	(1,0)	(1,0)	(1,0)	(1,0)	(1,0)	(1,0)	(1,0)	(1,0)	(1,0)	(1,0)	(1,0)	(1,0)	
L1D 493>	(-1,1)	(0,1)	(-3,1)	(1,0)	(1,0)	(1,0)	(1,0)	(1,0)	(1,0)	(1,0)	(1,0)	(1,0)	(1,0)	(1,0)	(1,0)	(1,0)	
L1D 494>	(1,0)	(1,0)	(1,0)	(1,0)	(1,0)	(1,0)	(1,0)	(1,0)	(1,0)	(1,0)	(1,0)	(1,0)	(1,0)	(1,0)	(1,0)	(1,0)	
L1D 495>	(1,0)	(1,0)	(1,0)	(1,0)	(1,0)	(1,0)	(1,0)	(1,0)	(1,0)	(1,0)	(1,0)	(1,0)	(1,0)	(1,0)	(1,0)	(1,0)	
L1D 496>	(1,0)	(1,0)	(1,0)	(1,0)	(1,0)	(1,0)	(1,0)	(1,0)	(1,0)	(1,0)	(1,0)	(1,0)	(1,0)	(1,0)	(1,0)	(1,0)	
L1D 497>	(1,0)	(1,0)	(1,0)	(1,0)	(1,0)	(1,0)	(1,0)	(1,0)	(1,0)	(1,0)	(1,0)	(1,0)	(1,0)	(1,0)	(1,0)	(1,0)	
L1D 498>	(-16,7)	(1,0)	(1,0)	(1,0)	(1,0)	(1,0)	(1,0)	(1,0)	(1,0)	(1,0)	(1,0)	(1,0)	(1,0)	(1,0)	(1,0)	(1,0)	
L1D 499>	(-16,8)	(2,5)	(1,0)	(1,0)	(1,0)	(1,0)	(1,0)	(1,0)	(1,0)	(1,0)	(1,0)	(1,0)	(1,0)	(1,0)	(1,0)	(1,0)	
L1D 500>	(-16,13)	(-1,2)	(2,2)	(1,0)	(1,0)	(1,0)	(1,0)	(1,0)	(1,0)	(1,0)	(1,0)	(1,0)	(1,0)	(1,0)	(1,0)	(1,0)	
L1D 501>	(-16,22)	(-1,3)	(-3,10)	(0,1)	(2,1)	(1,0)	(1,0)	(1,0)	(1,0)	(1,0)	(1,0)	(1,0)	(1,0)	(1,0)	(1,0)	(1,0)	
L1D 502>	(0,2)	(-3,2)	(1,0)	(1,0)	(1,0)	(1,0)	(1,0)	(1,0)	(1,0)	(1,0)	(1,0)	(1,0)	(1,0)	(1,0)	(1,0)	(1,0)	
L1D 503>	(0,1)	(-1,1)	(-16,12)	(1,0)	(1,0)	(1,0)	(1,0)	(1,0)	(1,0)	(1,0)	(1,0)	(1,0)	(1,0)	(1,0)	(1,0)	(1,0)	
L1D 504>	(1,0)	(1,0)	(1,0)	(1,0)	(1,0)	(1,0)	(1,0)	(1,0)	(1,0)	(1,0)	(1,0)	(1,0)	(1,0)	(1,0)	(1,0)	(1,0)	
L1D 505>	(1,0)	(1,0)	(1,0)	(1,0)	(1,0)	(1,0)	(1,0)	(1,0)	(1,0)	(1,0)	(1,0)	(1,0)	(1,0)	(1,0)	(1,0)	(1,0)	
L1D 506>	(1,0)	(1,0)	(1,0)	(1,0)	(1,0)	(1,0)	(1,0)	(1,0)	(1,0)	(1,0)	(1,0)	(1,0)	(1,0)	(1,0)	(1,0)	(1,0)	
L1D 507>	(1,0)	(1,0)	(1,0)	(1,0)	(1,0)	(1,0)	(1,0)	(1,0)	(1,0)	(1,0)	(1,0)	(1,0)	(1,0)	(1,0)	(1,0)	(1,0)	
L1D 508>	(1,0)	(1,0)	(1,0)	(1,0)	(1,0)	(1,0)	(1,0)	(1,0)	(1,0)	(1,0)	(1,0)	(1,0)	(1,0)	(1,0)	(1,0)	(1,0)	
L1D 509>	(1,0)	(1,0)	(1,0)	(1,0)	(1,0)	(1,0)	(1,0)	(1,0)	(1,0)	(1,0)	(1,0)	(1,0)	(1,0)	(1,0)	(1,0)	(1,0)	
L1D 510>	(1,0)	(1,0)	(1,0)	(1,0)	(1,0)	(1,0)	(1,0)	(1,0)	(1,0)	(1,0)	(1,0)	(1,0)	(1,0)	(1,0)	(1,0)	(1,0)	
L1D 511>	(1,0)	(1,0)	(1,0)	(1,0)	(1,0)	(1,0)	(1,0)	(1,0)	(1,0)	(1,0)	(1,0)	(1,0)	(1,0)	(1,0)	(1,0)	(1,0)	

L2C -64>	(1,150)	(-6,21)	(2,11)	(-5,53)	(-1,47)	(11,8)	(13,7)	(-28,1)	(-9,4)	(9,5)	(-45,2)	(7,4)	(-2,13)	(-7,6)	(0,7)	(8,11)	
L2C -63>	(1,47)	(42,1)	(3,1)	(1,0)	(1,0)	(1,0)	(1,0)	(1,0)	(1,0)	(1,0)	(1,0)	(1,0)	(1,0)	(1,0)	(1,0)	(1,0)	
L2C -62>	(2,1)	(-1,2)	(33,1)	(35,1)	(1,0)	(1,0)	(1,0)	(1,0)	(1,0)	(1,0)	(1,0)	(1,0)	(1,0)	(1,0)	(1,0)	(1,0)	
L2C -61>	(1,32)	(-1,4)	(2,1)	(49,1)	(36,1)	(38,1)	(1,0)	(1,0)	(1,0)	(1,0)	(1,0)	(1,0)	(1,0)	(1,0)	(1,0)	(1,0)	
L2C -60>	(61,3)	(19,1)	(-1,1)	(1,9)	(-3,1)	(56,1)	(21,1)	(1,0)	(1,0)	(1,0)	(1,0)	(1,0)	(1,0)	(1,0)	(1,0)	(1,0)	
L2C -59>	(57,1)	(22,2)	(1,4)	(55,1)	(43,1)	(51,1)	(7,1)	(61,1)	(3,1)	(-2,1)	(6,1)	(42,1)	(1,0)	(1,0)	(1,0)	(1,0)	
L2C -58>	(7,1)	(1,2)	(33,1)	(16,1)	(32,1)	(50,1)	(56,1)	(-1,8)	(49,1)	(4,1)	(1,0)	(1,0)	(1,0)	(1,0)	(1,0)	(1,0)	
L2C -57>	(39,1)	(40,2)	(49,1)	(1,2)	(36,1)	(-1,1)	(54,1)	(1,0)	(1,0)	(1,0)	(1,0)	(1,0)	(1,0)	(1,0)	(1,0)	(1,0)	
L2C -56>	(57,1)	(6,1)	(-1,1)	(34,1)	(1,46)	(59,1)	(23,1)	(33,1)	(38,1)	(32,2)	(51,1)	(1,0)	(1,0)	(1,0)	(1,0)	(1,0)	
L2C -55>	(54,1)	(1,9)	(56,3)	(34,1)	(-4,1)	(43,1)	(15,1)	(50,2)	(49,1)	(30,1)	(51,2)	(42,1)	(35,1)	(32,1)	(59,1)	(21,1)	
L2C -54>	(1,3)	(2,1)	(32,2)	(-1,5)	(5,1)	(28,1)	(17,1)	(-2,1)	(33,1)	(34,1)	(37,1)	(36,1)	(54,1)	(1,0)	(1,0)	(1,0)	
L2C -53>	(-1,5)	(-3,1)	(38,1)	(16,1)	(1,2)	(4,2)	(9,1)	(49,1)	(52,2)	(0,1)	(6,1)	(-2,1)	(53,1)	(1,0)	(1,0)	(1,0)	
L2C -52>	(19,1)	(43,1)	(40,2)	(3,2)	(-2,2)	(32,4)	(1,6)	(53,3)	(-1,3)	(38,4)	(47,1)	(36,1)	(-3,1)	(45,1)	(34,1)	(20,7)	
L2C -51>	(-1,4)	(60,1)	(2,1)	(-10,1)	(38,2)	(1,7)	(34,1)	(9,1)	(37,3)	(-2,2)	(36,1)	(51,1)	(-3,1)	(30,1)	(42,1)	(0,1)	
L2C -50>	(-1,9)	(1,30)	(54,2)	(36,2)	(46,1)	(-5,2)	(45,1)	(7,1)	(26,1)	(-2,3)	(15,1)	(18,1)	(22,1)	(33,1)	(38,1)	(-8,1)	
L2C -49>	(-1,6)	(-2,1)	(1,2)	(38,2)	(20,1)	(50,1)	(30,1)	(41,1)	(4,1)	(1,0)	(1,0)	(1,0)	(1,0)	(1,0)	(1,0)	(1,0)	
L2C -48>	(35,3)	(43,1)	(1,10)	(39,1)	(2,1)	(46,1)	(33,1)	(29,1)	(47,2)	(-14,2)	(10,1)	(44,2)	(26,1)	(-1,1)	(1,0)	(1,0)	
L2C -47>	(38,1)	(-10,2)	(-1,13)	(6,1)	(1,7)	(48,2)	(18,2)	(-14,5)	(32,2)	(-8,2)	(-9,1)	(2,18)	(15,1)	(33,1)	(51,1)	(10,2)	
L2C -46>	(1,8)	(54,1)	(50,2)	(-1,6)	(24,1)	(-9,1)	(47,9)	(-8,3)	(48,6)	(29,1)	(-14,2)	(-2,1)	(41,1)	(1,0)	(1,0)	(1,0)	
L2C -45>	(1,9)	(-1,8)	(28,1)	(49,2)	(34,1)	(2,1)	(48,1)	(33,2)	(32,1)	(45,1)	(57,1)	(-2,1)	(-8,1)	(1,0)	(1,0)	(1,0)	
L2C -44>	(42,1)	(1,3)	(-2,2)	(14,2)	(55,1)	(-1,8)	(9,3)	(2,3)	(33,1)	(39,1)	(11,1)	(61,2)	(-16,1)	(10,1)	(26,1)	(35,1)	
L2C -43>	(-14,11)	(15,2)	(42,2)	(-1,12)	(-4,1)	(-6,1)	(45,1)	(33,1)	(28,1)	(7,1)	(-8,3)	(1,2)	(35,4)	(21,1)	(26,1)	(30,3)	
L2C -42>	(1,13)	(-2,1)	(17,1)	(34,4)	(14,1)	(33,2)	(-1,7)	(55,2)	(13,3)	(6,1)	(48,2)	(51,1)	(11,2)	(31,1)	(50,2)	(2,2)	
L2C -41>	(51,1)	(29,1)	(43,2)	(55,1)	(9,1)	(62,1)	(31,1)	(42,3)	(2,7)	(41,1)	(34,1)	(32,2)	(28,1)	(4,1)	(1,4)	(23,12)	
L2C -40>	(1,21)	(-1,8)	(-6,1)	(39,2)	(15,1)	(19,1)	(30,32)	(24,1)	(5,2)	(2,2)	(8,2)	(34,1)	(23,2)	(51,1)	(-2,1)	(-3,1)	
L2C -39>	(1,11)	(-1,5)	(36,1)	(22,1)	(41,1)	(-4,1)	(38,1)	(19,1)	(30,1)	(8,1)	(-21,1)	(15,3)	(18,1)	(52,1)	(2,7)	(12,2)	
L2C -38>	(-1,18)	(36,4)	(-4,3)	(35,2)	(37,4)	(-17,1)	(32,3)	(22,1)	(42,2)	(30,2)	(2,8)	(48,1)	(17,1)	(-8,1)	(39,4)	(1,12)	
L2C -37>	(1,26)	(38,7)	(30,38)	(-1,10)	(2,4)	(28,6)	(29,2)	(48,8)	(19,1)	(25,1)	(45,1)	(18,4)	(-7,1)	(6,1)	(-3,1)	(-6,1)	
L2C -36>	(30,2)	(52,1)	(-1,14)	(1,53)	(22,3)	(31,4)	(-5,1)	(37,30)	(24,1)	(43,1)	(50,1)	(38,2)	(16,1)	(2,4)	(36,1)	(53,1)	
L2C -35>	(30,8)	(-4,2)	(16,3)	(34,1)	(29,3)	(7,1)	(1,21)	(5,1)	(22,2)	(-1,38)	(6,2)	(36,13)	(2,3)	(13,5)	(-8,1)	(-13,1)	
L2C -34>	(1,27)	(16,3)	(-2,9)	(28,1)	(33,1)	(50,1)	(37,2)	(2,2)	(14,2)	(49,1)	(47,1)	(-1,5)	(34,1)	(-3,3)	(-8,1)	(26,2)	
L2C -33>	(34,7)	(1,31)	(32,4)	(23,3)	(-1,18)	(54,2)	(18,7)	(-4,2)	(19,2)	(35,1)	(16,4)	(2,6)	(7,1)	(9,1)	(10,6)	(-9,1)	
L2C -32>	(3,8)	(51,4)	(48,18)	(34,14)	(28,5)	(33,12)	(2,4)	(-4,28)	(4,1)	(37,3)	(19,4)	(32,3)	(16,10)	(26,2)	(1,28)	(49,3)	
L2C -31>	(49,2)	(15,2)	(1,20)	(2,3)	(30,3)	(-1,16)	(35,4)	(37,1)	(-4,2)	(29,2)	(38,2)	(9,2)	(22,1)	(17,9)	(-32,1)	(31,2)	
L2C -30>	(1,16)	(31,8)	(-11,5)	(-1,27)	(29,10)	(16,6)	(10,2)	(49,2)	(-14,2)	(5,2)	(2,2)	(4,3)	(14,1)	(-3,1)	(-2,7)	(-6,2)	
L2C -29>	(10,4)	(16,33)	(-1,17)	(19,2)	(24,2)	(1,19)	(-4,2)	(14,1)	(25,13)	(-2,5)	(-33,1)	(38,1)	(47,3)	(26,15)	(33,2)	(20,1)	
L2C -28>	(-11,2)	(1,24)	(33,2)	(49,1)	(2,6)	(10,1)	(-1,17)	(-9,5)	(16,5)	(-7,12)	(-2,2)	(-24,1)	(6,1)	(5,2)	(17,1)	(0,1)	
L2C -27>	(28,8)	(-1,8)	(1,18)	(10,7)	(-9,5)	(26,9)	(-15,1)	(38,1)	(23,1)	(16,20)	(-16,1)	(30,10)	(-8,1)	(-3,1)	(-2,4)	(25,1)	
L2C -26>	(-1,47)	(1,46)	(9,11)	(20,1)	(-33,2)	(25,2)	(22,7)	(18,16)	(-9,1)	(27,6)	(-8,1)	(29,2)	(19,5)	(-2,4)	(32,1)	(6,1)	
L2C -25>	(1,42)	(-1,29)	(-12,2)	(17,2)	(3,8)	(52,23)	(21,2)	(-8,2)	(9,5)	(-4,2)	(7,4)	(22,2)	(-18,1)	(12,2)	(23,1)	(34,1)	
L2C -24>	(1,21)	(-1,13)	(19,2)	(-16,1)	(31,1)	(18,1)	(-15,1)	(51,1)	(7,1)	(23,1)	(47,1)	(-8,1)	(35,1)	(-6,3)	(-4,1)	(-12,2)	
L2C -23>	(24,4)	(-1,23)	(-16,4)	(1,44)	(19,2)	(9,12)	(2,6)	(36,1)	(22,3)	(14,3)	(-6,2)	(7,2)	(-9,1)	(28,3)	(33,2)	(57,1)	
L2C -22>	(1,38)	(52,13)	(-1,24)	(34,2)	(32,4)	(16,2)	(47,1)	(-7,7)	(27,12)	(-4,1)	(11,1)	(26,10)	(14,3)	(-2,6)	(9,3)	(-5,1)	
L2C -21>	(1,32)	(31,2)	(-1,47)	(4,7)	(16,5)	(3,2)	(27,1)	(-16,4)	(25,2)	(52,1)	(-2,6)	(32,3)	(-7,1)	(6,1)	(33,2)	(-24,1)	
L2C -20>	(1,29)	(14,7)	(-1,55)	(21,2)	(13,4)	(2,5)	(28,2)	(12,1)	(-2,7)	(16,1)	(-38,1)	(5,2)	(-10,4)	(3,2)	(-13,2)	(-12,1)	
L2C -19>	(-1,38)	(27,4)	(-6,6)	(5,9)	(1,27)	(17,4)	(20,4)	(16,5)	(-3,86)	(-2,11)	(-8,2)	(-32,1)	(3,1)	(13,2)	(28,3)	(32,3)	
L2C -18>	(1,85)	(28,5)	(22,3)	(-1,75)	(-8,4)	(32,2)	(-32,1)	(6,3)	(30,3)	(-2,9)	(16,5)	(4,2)	(17,4)	(21,1)	(19,52)	(23,2)	
L2C -17>	(-1,133)	(18,15)	(1,59)	(56,1)	(-2,15)	(10,7)	(-16,2)	(63,18)	(-6,4)	(-8,4)	(-23,1)	(13,5)	(17,7)	(12,9)	(2,6)	(-4,3)	
L2C -16>	(28,5)	(12,5)	(1,46)	(6,3)	(0,2)	(-17,3)	(-22,2)	(15,1)	(-26,1)	(-2,15)	(-1,85)	(-32,20)	(17,11)	(-4,4)	(-14,2)	(21,3)	
L2C -15>	(15,18)	(3,38)	(-1,61)	(13,4)	(-4,8)	(1,70)	(9,40)	(-2,18)	(-10,5)	(2,8)	(10,5)	(14,1)	(-18,2)	(17,14)	(16,10)	(0,9)	
L2C -14>	(1,48)	(16,5)	(-8,1)	(-2,54)	(3,8)	(10,4)	(2,46)	(-1,58)	(15,11)	(24,44)	(8,19)	(-3,7)	(0,4)	(18,3)	(19,2)	(-22,2)	
L2C -13>	(-10,3)	(1,85)	(14,16)	(7,10)	(5,4)	(2,10)	(-1,92)	(-14,57)	(-2,8)	(-3,13)	(10,6)	(15,3)	(17,1)	(12,4)	(42,5)	(-4,16)	
L2C -12>	(1,77)	(3,10)	(32,4)	(-1,202)	(-8,3)	(13,4)	(12,1)	(9,3)	(11,6)	(-11,1)	(4,1)	(2,1)	(7,6)	(-2,28)	(-16,1)	(17,1)	
L2C -11>	(16,3)	(12,9)	(10,11)	(-1,239)	(-3,5)	(24,2)	(-2,20)	(-7,3)	(28,2)	(-18,1)	(25,2)	(3,29)	(1,75)	(38,1)	(-4,6)	(2,17)	
L2C -10>	(12,5)	(-1,85)	(0,4)	(-2,50)	(11,61)	(-3,6)	(-4,14)	(8,18)	(1,131)	(-8,3)	(3,3)	(-19,1)	(-22,3)	(2,12)	(6,1)	(9,6)	
L2C -9>	(10,6)	(8,4)	(5,7)	(1,188)	(-1,180)	(-2,27)	(2,5)	(11,12)	(34,2)	(-3,11)	(56,2)	(-13,2)	(-5,4)	(-4,13)	(12,4)	(3,20)	
L2C -8>	(1,186)	(3,92)	(-1,219)	(2,19)	(9,24)	(18,5)	(11,3)	(-3,14)	(41,18)	(-28,1)	(-4,25)	(-2,50)	(-7,4)	(5,17)	(-17,7)	(4,31)	
L2C -7>	(1,56)	(5,1)	(-1,136)	(-31,1)	(-6,6)	(-4,2)	(-29,1)	(21,1)	(2,8)	(3,2)	(8,11)	(18,1)	(-2,12)	(-18,1)	(-5,4)	(55,0)	
L2C -6>	(8,15)	(-1,178)	(-17,3)	(1,124)	(-3,14)	(-4,15)	(2,12)	(3,19)	(35,1)	(-5,4)	(7,48)	(9,4)	(-10,1)	(18,3)	(4,5)	(0,7)	
L2C -5>	(1,130)	(-1,55)	(2,4)	(3,20)	(-2,1)	(7,3)	(-8,1)	(6,8)	(-4,4)	(4,2)	(-5,4)	(33,1)	(5,1)	(0,14)	(-38,0)	(9,0)	
L2C -4>	(-9,2)	(-6,9)	(-1,180)	(-15,3)	(5,30)	(3,13)	(-2,43)	(-4,29)	(-11,19)	(-3,11)	(10,2)	(1,115)	(30,1)	(8,4)	(-32,1)	(7,6)	
L2C -3>	(0,4)	(4,27)	(-4,16)	(-3,14)	(22,2)	(17,3)	(2,26)	(-1,183)	(3,10)	(1,81)	(10,7)	(-9,4)	(-2,35)	(32,22)	(33,3)	(8,1)	
L2C -2>	(-1,176)	(1,34)	(-5,3)	(35,1)	(-13,7)	(10,3)	(4,3)	(3,10)	(8,3)	(-3,8)	(-9,4)	(9,4)	(-4,16)	(-2,31)	(29,1)	(11,1)	
L2C -1>	(20,1)	(-1,165)	(2,12)	(-2,10)	(-3,1)	(21,1)	(13,2)	(-24,1)	(1,2)	(-25,2)	(11,1)	(10,2)	(-11,1)	(9,1)	(5,1)	(-21,1)	
L2C 0>	(1,44)	(11,1)	(2,1)	(0,252)	(-1,15)	(34,2)	(14,1)	(-15,2)	(-3,3)	(4,1)	(18,1)	(-14,2)	(19,1)	(-25,1)	(-17,1)	(-16,2)	
L2C 1>	(-18,2)	(1,242)	(-7,8)	(-6,9)	(-5,7)	(-57,1)	(-3,4)	(-32,2)	(-1,1)	(2,4)	(-8,1)	(-9,2)	(-4,4)	(21,1)	(-10,3)	(-11,2)	
L2C 2>	(12,1)	(-4,1)	(1,161)	(-1,17)	(-6,1)	(9,1)	(-9,2)	(-2,1)	(2,14)	(3,5)	(8,6)	(-11,6)	(10,1)	(4,1)	(-18,1)	(-19,2)	
L2C 3>	(1,175)	(-3,2)	(-6,10)	(-1,48)	(2,12)	(-5,14)	(-8,31)	(5,6)	(3,26)	(11,14)	(-2,12)	(4,5)	(-10,4)	(-4,37)	(-11,2)	(14,1)	
L2C 4>	(1,181)	(-6,13)	(-2,8)	(9,7)	(-3,75)	(-9,11)	(-14,8)	(-8,24)	(2,20)	(31,1)	(4,12)	(0,5)	(6,2)	(-1,167)	(-5,14)	(8,2)	
L2C 5>	(1,169)	(-3,12)	(-6,13)	(-1,95)	(-10,2)	(-8,3)	(11,2)	(-9,1)	(2,22)	(-4,54)	(-21,2)	(-27,4)	(-11,3)	(-7,6)	(3,5)	(-2,37)	
L2C 6>	(-1,60)	(1,116)	(0,7)	(-5,22)	(-12,3)	(30,2)	(-11,1)	(2,12)	(-6,2)	(-7,23)	(11,4)	(3,3)	(-32,1)	(-2,14)	(36,2)	(4,3)	
L2C 7>	(-2,57)	(1,105)	(-1,62)	(2,20)	(-6,9)	(20,20)	(-9,6)	(-4,6)	(-5,21)	(-13,1)	(-8,14)	(-35,21)	(24,2)	(10,4)	(11,4)	(5,18)	
L2C 8>	(2,15)	(1,140)	(-1,139)	(-4,6)	(-6,17)	(-7,11)	(4,6)	(-10,5)	(-3,14)	(-16,12)	(7,3)	(-5,4)	(-51,1)	(-9,33)	(-2,43)	(-18,4)	
L2C 9>	(-16,2)	(1,172)	(-1,103)	(-10,10)	(-8,5)	(-17,3)	(-13,7)	(2,6)	(26,3)	(-14,1)	(-7,2)	(22,1)	(-19,53)	(-2,19)	(13,1)	(-4,12)	
L2C 10>	(-18,12)	(1,164)	(-1,148)	(3,5)	(-42,1)	(-2,54)	(10,3)	(-29,32)	(8,4)	(5,9)	(-22,2)	(-16,5)	(-10,2)	(-6,10)	(-11,2)	(2,12)	
L2C 11>	(-6,6)	(1,179)	(-1,136)	(-8,6)	(-12,13)	(-46,1)	(-9,6)	(-19,9)	(-10,8)	(2,10)	(-3,41)	(-13,8)	(-17,3)	(-37,2)	(-25,4)	(-2,34)	
L2C 12>	(1,114)	(-43,2)	(11,5)	(-48,3)	(-1,131)	(-11,7)	(-13,7)	(-2,11)	(-4,1)	(-16,7)	(-8,3)	(-30,1)	(-51,2)	(4,5)	(-29,1)	(-15,6)	
L2C 13>	(0,2)	(2,7)	(1,69)	(-1,40)	(-5,4)	(-43,3)	(10,1)	(12,27)	(6,1)	(-3,1)	(13,2)	(-14,16)	(-7,3)	(-11,22)	(-10,5)	(-4,8)	
L2C 14>	(1,38)	(17,1)	(-2,6)	(-12,1)	(-4,6)	(16,1)	(-19,4)	(2,9)	(-20,2)	(-1,12)	(-13,10)	(-22,2)	(22,2)	(-35,3)	(-17,3)	(-14,5)	
L2C 15>	(1,49)	(-15,7)	(5,3)	(-1,14)	(-30,4)	(-29,2)	(-16,10)	(4,3)	(7,1)	(19,3)	(-2,7)	(-21,2)	(-12,2)	(2,11)	(-11,13)	(-14,3)	
L2C 16>	(1,57)	(-2,39)	(-1,14)	(0,14)	(10,12)	(-4,4)	(-11,4)	(-18,4)	(-15,7)	(-21,3)	(-17,10)	(17,23)	(-28,1)	(38,1)	(-52,3)	(-32,3)	
L2C 17>	(-1,62)	(1,62)	(-19,7)	(11,14)	(-2,5)	(-4,7)	(-16,8)	(-32,2)	(10,10)	(-5,5)	(2,2)	(-50,1)	(-18,5)	(-3,10)	(-7,3)	(-45,1)	
L2C 18>	(1,69)	(-17,13)	(9,2)	(-33,4)	(-7,15)	(-6,3)	(-10,2)	(-1,25)	(-12,1)	(-59,2)	(6,1)	(4,3)	(-39,1)	(-32,4)	(-37,3)	(0,2)	
L2C 19>	(-11,3)	(-3,1)	(-4,5)	(1,36)	(-22,3)	(9,3)	(-2,9)	(-1,22)	(-16,1)	(-13,6)	(5,2)	(-17,18)	(12,1)	(-14,19)	(-8,3)	(10,1)	
L2C 20>	(1,121)	(-3,20)	(-26,6)	(26,1)	(-1,19)	(-23,1)	(-14,2)	(0,1)	(2,5)	(-5,1)	(-4,4)	(-2,8)	(-37,1)	(-17,9)	(5,2)	(-8,3)	
L2C 21>	(-18,3)	(-38,1)	(1,69)	(-15,1)	(-50,1)	(-1,14)	(-37,3)	(-17,8)	(30,1)	(-27,1)	(-42,2)	(-10,3)	(16,1)	(-4,4)	(-8,7)	(-2,2)	
L2C 22>	(-21,3)	(1,25)	(-1,12)	(-41,2)	(-17,11)	(-43,2)	(-19,2)	(-59,1)	(-23,4)	(-8,5)	(15,1)	(5,5)	(-16,1)	(20,1)	(2,3)	(-28,2)	
L2C 23>	(9,13)	(2,10)	(3,5)	(-17,10)	(-22,4)	(6,1)	(-35,1)	(-1,59)	(-46,1)	(4,2)	(-13,6)	(-2,26)	(-8,3)	(1,20)	(-7,1)	(-20,1)	
L2C 24>	(1,30)	(-13,2)	(-3,3)	(-1,13)	(-36,1)	(8,1)	(7,1)	(6,2)	(10,38)	(-35,4)	(2,3)	(-21,2)	(-28,1)	(5,3)	(4,3)	(26,1)	
L2C 25>	(1,30)	(-2,8)	(-14,4)	(-24,2)	(-16,3)	(-1,28)	(8,1)	(-33,1)	(2,7)	(-19,1)	(-21,3)	(3,3)	(-3,4)	(-32,1)	(17,2)	(-17,3)	
L2C 26>	(1,21)	(-25,7)	(-13,1)	(-1,17)	(-22,4)	(-4,12)	(-19,2)	(11,2)	(2,19)	(-5,4)	(4,1)	(23,1)	(24,1)	(-16,3)	(-3,1)	(-26,4)	
L2C 27>	(-29,1)	(-30,1)	(-19,2)	(-28,4)	(1,19)	(-33,1)	(-1,30)	(-32,4)	(-37,2)	(-18,2)	(2,2)	(-2,9)	(-43,1)	(-10,3)	(-27,2)	(-3,1)	
L2C 28>	(1,28)	(-1,44)	(-12,3)	(4,3)	(-15,3)	(-16,3)	(-17,3)	(-13,6)	(-9,2)	(-34,2)	(2,24)	(3,1)	(-22,1)	(-52,1)	(-27,7)	(5,6)	
L2C 29>	(-28,5)	(-2,5)	(-33,1)	(1,25)	(-4,5)	(-8,2)	(-23,1)	(3,1)	(-1,11)	(4,2)	(5,1)	(2,7)	(23,3)	(8,1)	(14,1)	(-29,2)	
L2C 30>	(-15,3)	(-1,41)	(1,20)	(-2,67)	(-28,2)	(-32,4)	(-38,4)	(-4,29)	(7,7)	(-21,5)	(15,2)	(-29,15)	(-7,2)	(8,2)	(-5,1)	(0,1)	
L2C 31>	(-33,4)	(-2,6)	(-1,14)	(-15,5)	(2,1)	(-18,1)	(12,3)	(-29,2)	(-17,2)	(1,11)	(11,3)	(7,14)	(23,1)	(-32,1)	(-30,8)	(-38,1)	
L2C 32>	(-35,3)	(-30,4)	(2,5)	(-1,52)	(1,35)	(-19,3)	(19,4)	(-31,11)	(-7,18)	(-2,7)	(-32,4)	(4,3)	(0,1)	(-33,3)	(-22,2)	(-16,4)	
L2C 33>	(-31,3)	(-9,2)	(-1,42)	(1,29)	(-15,5)	(-32,4)	(-34,4)	(-14,13)	(-2,4)	(-10,7)	(-47,13)	(-4,2)	(-6,1)	(-51,1)	(-17,1)	(17,2)	
L2C 34>	(-33,7)	(-4,3)	(1,38)	(-32,4)	(-1,13)	(-43,5)	(13,3)	(-29,2)	(2,4)	(-44,1)	(-2,14)	(-15,8)	(-8,3)	(9,1)	(-38,1)	(-30,1)	
L2C 35>	(1,41)	(-4,3)	(5,2)	(24,1)	(-37,7)	(2,4)	(-17,1)	(14,1)	(23,2)	(-32,3)	(0,1)	(-9,1)	(-26,1)	(-15,4)	(-36,10)	(-1,7)	
L2C 36>	(-38,6)	(-1,8)	(-35,3)	(-18,2)	(2,4)	(-47,2)	(-24,1)	(-3,2)	(-52,1)	(1,22)	(-2,4)	(-32,6)	(-14,3)	(-17,2)	(-16,2)	(9,1)	
L2C 37>	(1,18)	(-36,19)	(-1,15)	(-27,2)	(-2,2)	(-38,9)	(4,2)	(14,1)	(-26,1)	(-3,5)	(-4,8)	(0,1)	(2,3)	(15,1)	(-35,9)	(-46,1)	
L2C 38>	(-1,8)	(-37,7)	(-15,27)	(-29,15)	(-13,1)	(-34,2)	(21,1)	(-35,3)	(-2,4)	(-3,14)	(-39,3)	(1,53)	(4,1)	(-38,1)	(-36,7)	(-12,1)	
L2C 39>	(-1,9)	(8,1)	(-30,1)	(1,14)	(-26,4)	(-32,6)	(-36,1)	(-4,2)	(5,1)	(-59,1)	(-37,2)	(6,1)	(-44,2)	(12,2)	(17,2)	(-16,2)	
L2C 40>	(1,17)	(-1,12)	(2,4)	(-39,2)	(-2,3)	(-37,1)	(-14,1)	(5,1)	(-32,3)	(14,1)	(12,1)	(-3,1)	(16,1)	(13,2)	(-8,1)	(11,1)	
L2C 41>	(1,29)	(-20,1)	(-32,6)	(-1,11)	(-4,1)	(-51,1)	(-8,2)	(4,1)	(2,6)	(-53,2)	(-2,1)	(-28,1)	(-40,2)	(-42,1)	(-47,1)	(-17,1)	
L2C 42>	(-1,20)	(-47,9)	(-32,1)	(1,18)	(-31,1)	(3,1)	(-21,2)	(-6,2)	(-37,16)	(-4,10)	(-14,1)	(-2,3)	(-34,1)	(15,1)	(-9,3)	(-38,1)	
L2C 43>	(1,22)	(-2,1)	(-46,1)	(-32,18)	(-1,17)	(-37,19)	(-22,2)	(5,1)	(-38,2)	(-59,1)	(-4,2)	(-17,1)	(10,1)	(-47,1)	(-6,1)	(7,1)	
L2C 44>	(-54,1)	(2,4)	(1,18)	(-19,1)	(-1,16)	(-4,2)	(-3,3)	(-45,2)	(-5,2)	(-26,1)	(8,1)	(-12,2)	(-29,2)	(-18,1)	(-10,2)	(-14,2)	
L2C 45>	(-19,1)	(-33,1)	(-41,1)	(1,17)	(-1,10)	(2,4)	(-46,8)	(9,1)	(-51,3)	(4,1)	(-44,2)	(-18,1)	(-6,1)	(-28,1)	(-49,1)	(-40,1)	
L2C 46>	(1,11)	(-48,1)	(-5,2)	(2,6)	(-1,22)	(-35,2)	(-53,1)	(4,1)	(-49,1)	(-3,1)	(-51,1)	(-2,6)	(-47,2)	(-17,1)	(-13,3)	(0,1)	
L2C 47>	(6,1)	(-46,2)	(-43,1)	(1,22)	(-6,2)	(-17,6)	(-1,5)	(2,7)	(-14,2)	(-19,1)	(4,1)	(-34,1)	(0,1)	(-28,2)	(-15,1)	(-24,1)	
L2C 48>	(-1,3)	(-52,35)	(-18,1)	(3,1)	(-23,1)	(1,7)	(-61,1)	(2,3)	(-49,1)	(-4,1)	(-28,1)	(-47,1)	(10,1)	(-38,2)	(-33,2)	(-6,1)	
L2C 49>	(1,14)	(-8,5)	(-19,1)	(-4,2)	(-47,1)	(-17,3)	(-11,2)	(-32,1)	(2,1)	(-26,1)	(-10,1)	(-58,1)	(-50,1)	(-30,2)	(-25,1)	(8,1)	
L2C 50>	(-30,2)	(-34,1)	(-13,4)	(-1,7)	(-16,1)	(-29,1)	(1,8)	(-19,1)	(-2,1)	(-47,1)	(-50,1)	(-8,1)	(3,2)	(-35,1)	(-58,1)	(-51,2)	
L2C 51>	(-8,2)	(-14,3)	(-35,2)	(0,1)	(-4,2)	(12,1)	(1,7)	(-13,4)	(4,1)	(-10,3)	(-51,2)	(-6,1)	(-1,1)	(-12,1)	(-57,1)	(5,1)	
L2C 52>	(-6,12)	(2,21)	(-14,24)	(-51,3)	(-21,2)	(1,3)	(-27,1)	(-11,1)	(-47,1)	(-10,1)	(-17,1)	(-3,1)	(-13,1)	(1,0)	(1,0)	(1,0)	
L2C 53>	(-1,7)	(-21,1)	(1,14)	(2,6)	(-14,2)	(-43,1)	(-55,1)	(0,1)	(1,0)	(1,0)	(1,0)	(1,0)	(1,0)	(1,0)	(1,0)	(1,0)	
L2C 54>	(-1,4)	(-16,1)	(1,6)	(-30,1)	(-17,1)	(2,4)	(-29,1)	(-8,4)	(4,2)	(-13,1)	(-21,1)	(-47,1)	(-5,2)	(-11,1)	(-37,1)	(-53,2)	
L2C 55>	(1,5)	(-53,3)	(-14,1)	(-54,2)	(4,1)	(-9,1)	(-1,7)	(-39,2)	(-12,1)	(-25,1)	(-55,1)	(-3,1)	(-59,1)	(-4,1)	(1,0)	(1,0)	
L2C 56>	(-2,1)	(1,2)	(-55,1)	(-3,2)	(-1,52)	(-18,1)	(-54,2)	(-4,2)	(-8,1)	(-61,1)	(-35,1)	(1,0)	(1,0)	(1,0)	(1,0)	(1,0)	
L2C 57>	(-13,2)	(-53,1)	(-54,2)	(-1,5)	(1,6)	(-50,21)	(-4,2)	(-2,5)	(-21,2)	(-58,8)	(-7,1)	(-49,1)	(-55,1)	(1,0)	(1,0)	(1,0)	
L2C 58>	(1,5)	(-1,22)	(-25,1)	(-2,4)	(-52,1)	(-55,1)	(1,0)	(1,0)	(1,0)	(1,0)	(1,0)	(1,0)	(1,0)	(1,0)	(1,0)	(1,0)	
L2C 59>	(1,2)	(-4,1)	(-8,3)	(-57,1)	(1,0)	(1,0)	(1,0)	(1,0)	(1,0)	(1,0)	(1,0)	(1,0)	(1,0)	(1,0)	(1,0)	(1,0)	
L2C 60>	(-2,1)	(1,0)	(1,0)	(1,0)	(1,0)	(1,0)	(1,0)	(1,0)	(1,0)	(1,0)	(1,0)	(1,0)	(1,0)	(1,0)	(1,0)	(1,0)	
L2C 61>	(-1,27)	(-8,1)	(-50,1)	(-62,3)	(1,1)	(1,0)	(1,0)	(1,0)	(1,0)	(1,0)	(1,0)	(1,0)	(1,0)	(1,0)	(1,0)	(1,0)	
L2C 62>	(-56,1)	(-28,1)	(1,0)	(1,0)	(1,0)	(1,0)	(1,0)	(1,0)	(1,0)	(1,0)	(1,0)	(1,0)	(1,0)	(1,0)	(1,0)	(1,0)	
L2C 63>	(-1,1)	(-2,16)	(-11,1)	(-10,1)	(-7,1)	(1,0)	(1,0)	(1,0)	(1,0)	(1,0)	(1,0)	(1,0)	(1,0)	(1,0)	(1,0)	(1,0)	

DRAM Statistics
 CHANNEL 0
 RQ ROW_BUFFER_HIT:       2192  ROW_BUFFER_MISS:       2370
 DBUS_CONGESTED:       3638
 WQ ROW_BUFFER_HIT:          0  ROW_BUFFER_MISS:          0  FULL:          0

 AVG_CONGESTED_CYCLE: 6
