
*** ChampSim Multicore Out-of-Order Simulator ***

Warmup Instructions: 1000000
Simulation Instructions: 10000000
Number of CPUs: 1
LLC sets: 2048
LLC ways: 16
Off-chip DRAM Size: 4096 MB Channels: 1 Width: 64-bit Data Rate: 3200 MT/s

CPU 0 runs /home/virtualcse/Data-Prefetching/ChampSim/dpc3_traces/644.nab_s-7928B.champsimtrace.xz
Ultra pref. initializing...
Ultra pref. initialized
Ultra pref. initializing...
Ultra pref. initialized

Warmup complete CPU 0 instructions: 1000001 cycles: 346271 (Simulation time: 0 hr 0 min 2 sec) 

Heartbeat CPU 0 instructions: 10000003 cycles: 5961093 heartbeat IPC: 1.67755 cumulative IPC: 1.6029 (Simulation time: 0 hr 0 min 19 sec) 
Finished CPU 0 instructions: 10000000 cycles: 6244643 cumulative IPC: 1.60137 (Simulation time: 0 hr 0 min 21 sec) 

CPU 0 Branch Prediction Accuracy: 98.5398% MPKI: 1.3494 Average ROB Occupancy at Mispredict: 104.143

ChampSim completed all CPUs

Region of Interest Statistics

CPU 0 cumulative IPC: 1.60137 instructions: 10000000 cycles: 6244643
L1D TOTAL     ACCESS:    6455795  HIT:    6343038  MISS:     112757
L1D LOAD      ACCESS:    2022040  HIT:    2013552  MISS:       8488
L1D RFO       ACCESS:     670928  HIT:     670928  MISS:          0
L1D PREFETCH  ACCESS:    3762827  HIT:    3658558  MISS:     104269
L1D WRITEBACK ACCESS:          0  HIT:          0  MISS:          0
L1D PREFETCH  REQUESTED:   55292693  ISSUED:   24150701  USEFUL:      91031  USELESS:      22979
L1D AVERAGE MISS LATENCY: 17.1763 cycles
L1I TOTAL     ACCESS:    1277330  HIT:    1277268  MISS:         62
L1I LOAD      ACCESS:    1277330  HIT:    1277268  MISS:         62
L1I RFO       ACCESS:          0  HIT:          0  MISS:          0
L1I PREFETCH  ACCESS:          0  HIT:          0  MISS:          0
L1I WRITEBACK ACCESS:          0  HIT:          0  MISS:          0
L1I PREFETCH  REQUESTED:          0  ISSUED:          0  USEFUL:          0  USELESS:          0
L1I AVERAGE MISS LATENCY: 21.2097 cycles
L2C TOTAL     ACCESS:     923347  HIT:     917066  MISS:       6281
L2C LOAD      ACCESS:       8516  HIT:       8294  MISS:        222
L2C RFO       ACCESS:          0  HIT:          0  MISS:          0
L2C PREFETCH  ACCESS:     884426  HIT:     878367  MISS:       6059
L2C WRITEBACK ACCESS:      30405  HIT:      30405  MISS:          0
L2C PREFETCH  REQUESTED:    2074307  ISSUED:    1388175  USEFUL:       1463  USELESS:       3549
L2C AVERAGE MISS LATENCY: 131.924 cycles
LLC TOTAL     ACCESS:       6398  HIT:        473  MISS:       5925
LLC LOAD      ACCESS:        222  HIT:         46  MISS:        176
LLC RFO       ACCESS:          0  HIT:          0  MISS:          0
LLC PREFETCH  ACCESS:       6059  HIT:        310  MISS:       5749
LLC WRITEBACK ACCESS:        117  HIT:        117  MISS:          0
LLC PREFETCH  REQUESTED:          0  ISSUED:          0  USEFUL:         35  USELESS:          0
LLC AVERAGE MISS LATENCY: 107.894 cycles
Major fault: 0 Minor fault: 251

L1D -512>	(6,1)	(1,44)	(3,10)	(-2,11)	(0,119)	(9,1)	(-1,17)	(-326,1)	(2,23)	(4,2)	(8,2)	(27,2)	(5,2)	(-37,1)	(40,2)	(118,1)	
L1D -511>	(2,6)	(45,1)	(3,65)	(1,43)	(0,3)	(1,0)	(1,0)	(1,0)	(1,0)	(1,0)	(1,0)	(1,0)	(1,0)	(1,0)	(1,0)	(1,0)	
L1D -510>	(3,97)	(2,5)	(1,3)	(5,1)	(36,4)	(39,1)	(1,0)	(1,0)	(1,0)	(1,0)	(1,0)	(1,0)	(1,0)	(1,0)	(1,0)	(1,0)	
L1D -509>	(2,28)	(5,5)	(1,1)	(8,5)	(17,1)	(1,0)	(1,0)	(1,0)	(1,0)	(1,0)	(1,0)	(1,0)	(1,0)	(1,0)	(1,0)	(1,0)	
L1D -508>	(-1,2)	(3,74)	(6,13)	(1,5)	(24,2)	(4,1)	(1,0)	(1,0)	(1,0)	(1,0)	(1,0)	(1,0)	(1,0)	(1,0)	(1,0)	(1,0)	
L1D -507>	(2,1)	(3,1)	(5,1)	(6,1)	(1,0)	(1,0)	(1,0)	(1,0)	(1,0)	(1,0)	(1,0)	(1,0)	(1,0)	(1,0)	(1,0)	(1,0)	
L1D -506>	(1,0)	(1,0)	(1,0)	(1,0)	(1,0)	(1,0)	(1,0)	(1,0)	(1,0)	(1,0)	(1,0)	(1,0)	(1,0)	(1,0)	(1,0)	(1,0)	
L1D -505>	(-1,1)	(3,7)	(1,3)	(-2,1)	(1,0)	(1,0)	(1,0)	(1,0)	(1,0)	(1,0)	(1,0)	(1,0)	(1,0)	(1,0)	(1,0)	(1,0)	
L1D -504>	(1,0)	(1,0)	(1,0)	(1,0)	(1,0)	(1,0)	(1,0)	(1,0)	(1,0)	(1,0)	(1,0)	(1,0)	(1,0)	(1,0)	(1,0)	(1,0)	
L1D -503>	(1,0)	(1,0)	(1,0)	(1,0)	(1,0)	(1,0)	(1,0)	(1,0)	(1,0)	(1,0)	(1,0)	(1,0)	(1,0)	(1,0)	(1,0)	(1,0)	
L1D -502>	(3,1)	(1,0)	(1,0)	(1,0)	(1,0)	(1,0)	(1,0)	(1,0)	(1,0)	(1,0)	(1,0)	(1,0)	(1,0)	(1,0)	(1,0)	(1,0)	
L1D -501>	(3,23)	(1,0)	(1,0)	(1,0)	(1,0)	(1,0)	(1,0)	(1,0)	(1,0)	(1,0)	(1,0)	(1,0)	(1,0)	(1,0)	(1,0)	(1,0)	
L1D -500>	(2,2)	(1,0)	(1,0)	(1,0)	(1,0)	(1,0)	(1,0)	(1,0)	(1,0)	(1,0)	(1,0)	(1,0)	(1,0)	(1,0)	(1,0)	(1,0)	
L1D -499>	(6,1)	(1,0)	(1,0)	(1,0)	(1,0)	(1,0)	(1,0)	(1,0)	(1,0)	(1,0)	(1,0)	(1,0)	(1,0)	(1,0)	(1,0)	(1,0)	
L1D -498>	(1,2)	(3,1)	(1,0)	(1,0)	(1,0)	(1,0)	(1,0)	(1,0)	(1,0)	(1,0)	(1,0)	(1,0)	(1,0)	(1,0)	(1,0)	(1,0)	
L1D -497>	(1,0)	(1,0)	(1,0)	(1,0)	(1,0)	(1,0)	(1,0)	(1,0)	(1,0)	(1,0)	(1,0)	(1,0)	(1,0)	(1,0)	(1,0)	(1,0)	
L1D -496>	(1,1)	(3,2)	(6,1)	(1,0)	(1,0)	(1,0)	(1,0)	(1,0)	(1,0)	(1,0)	(1,0)	(1,0)	(1,0)	(1,0)	(1,0)	(1,0)	
L1D -495>	(1,0)	(1,0)	(1,0)	(1,0)	(1,0)	(1,0)	(1,0)	(1,0)	(1,0)	(1,0)	(1,0)	(1,0)	(1,0)	(1,0)	(1,0)	(1,0)	
L1D -494>	(1,0)	(1,0)	(1,0)	(1,0)	(1,0)	(1,0)	(1,0)	(1,0)	(1,0)	(1,0)	(1,0)	(1,0)	(1,0)	(1,0)	(1,0)	(1,0)	
L1D -493>	(-2,1)	(1,0)	(1,0)	(1,0)	(1,0)	(1,0)	(1,0)	(1,0)	(1,0)	(1,0)	(1,0)	(1,0)	(1,0)	(1,0)	(1,0)	(1,0)	
L1D -492>	(3,5)	(9,1)	(1,0)	(1,0)	(1,0)	(1,0)	(1,0)	(1,0)	(1,0)	(1,0)	(1,0)	(1,0)	(1,0)	(1,0)	(1,0)	(1,0)	
L1D -491>	(1,0)	(1,0)	(1,0)	(1,0)	(1,0)	(1,0)	(1,0)	(1,0)	(1,0)	(1,0)	(1,0)	(1,0)	(1,0)	(1,0)	(1,0)	(1,0)	
L1D -490>	(1,8)	(9,4)	(-2,1)	(3,1)	(1,0)	(1,0)	(1,0)	(1,0)	(1,0)	(1,0)	(1,0)	(1,0)	(1,0)	(1,0)	(1,0)	(1,0)	
L1D -489>	(3,7)	(1,0)	(1,0)	(1,0)	(1,0)	(1,0)	(1,0)	(1,0)	(1,0)	(1,0)	(1,0)	(1,0)	(1,0)	(1,0)	(1,0)	(1,0)	
L1D -488>	(1,2)	(1,0)	(1,0)	(1,0)	(1,0)	(1,0)	(1,0)	(1,0)	(1,0)	(1,0)	(1,0)	(1,0)	(1,0)	(1,0)	(1,0)	(1,0)	
L1D -487>	(-1,1)	(3,24)	(1,1)	(1,0)	(1,0)	(1,0)	(1,0)	(1,0)	(1,0)	(1,0)	(1,0)	(1,0)	(1,0)	(1,0)	(1,0)	(1,0)	
L1D -486>	(3,3)	(1,0)	(1,0)	(1,0)	(1,0)	(1,0)	(1,0)	(1,0)	(1,0)	(1,0)	(1,0)	(1,0)	(1,0)	(1,0)	(1,0)	(1,0)	
L1D -485>	(1,0)	(1,0)	(1,0)	(1,0)	(1,0)	(1,0)	(1,0)	(1,0)	(1,0)	(1,0)	(1,0)	(1,0)	(1,0)	(1,0)	(1,0)	(1,0)	
L1D -484>	(-1,1)	(6,1)	(3,1)	(-2,2)	(1,0)	(1,0)	(1,0)	(1,0)	(1,0)	(1,0)	(1,0)	(1,0)	(1,0)	(1,0)	(1,0)	(1,0)	
L1D -483>	(3,2)	(1,0)	(1,0)	(1,0)	(1,0)	(1,0)	(1,0)	(1,0)	(1,0)	(1,0)	(1,0)	(1,0)	(1,0)	(1,0)	(1,0)	(1,0)	
L1D -482>	(1,0)	(1,0)	(1,0)	(1,0)	(1,0)	(1,0)	(1,0)	(1,0)	(1,0)	(1,0)	(1,0)	(1,0)	(1,0)	(1,0)	(1,0)	(1,0)	
L1D -481>	(-2,2)	(3,3)	(1,0)	(1,0)	(1,0)	(1,0)	(1,0)	(1,0)	(1,0)	(1,0)	(1,0)	(1,0)	(1,0)	(1,0)	(1,0)	(1,0)	
L1D -480>	(15,2)	(1,0)	(1,0)	(1,0)	(1,0)	(1,0)	(1,0)	(1,0)	(1,0)	(1,0)	(1,0)	(1,0)	(1,0)	(1,0)	(1,0)	(1,0)	
L1D -479>	(1,0)	(1,0)	(1,0)	(1,0)	(1,0)	(1,0)	(1,0)	(1,0)	(1,0)	(1,0)	(1,0)	(1,0)	(1,0)	(1,0)	(1,0)	(1,0)	
L1D -478>	(1,0)	(1,0)	(1,0)	(1,0)	(1,0)	(1,0)	(1,0)	(1,0)	(1,0)	(1,0)	(1,0)	(1,0)	(1,0)	(1,0)	(1,0)	(1,0)	
L1D -477>	(3,1)	(1,0)	(1,0)	(1,0)	(1,0)	(1,0)	(1,0)	(1,0)	(1,0)	(1,0)	(1,0)	(1,0)	(1,0)	(1,0)	(1,0)	(1,0)	
L1D -476>	(1,0)	(1,0)	(1,0)	(1,0)	(1,0)	(1,0)	(1,0)	(1,0)	(1,0)	(1,0)	(1,0)	(1,0)	(1,0)	(1,0)	(1,0)	(1,0)	
L1D -475>	(3,1)	(-2,1)	(1,2)	(1,0)	(1,0)	(1,0)	(1,0)	(1,0)	(1,0)	(1,0)	(1,0)	(1,0)	(1,0)	(1,0)	(1,0)	(1,0)	
L1D -474>	(2,1)	(6,2)	(1,0)	(1,0)	(1,0)	(1,0)	(1,0)	(1,0)	(1,0)	(1,0)	(1,0)	(1,0)	(1,0)	(1,0)	(1,0)	(1,0)	
L1D -473>	(1,0)	(1,0)	(1,0)	(1,0)	(1,0)	(1,0)	(1,0)	(1,0)	(1,0)	(1,0)	(1,0)	(1,0)	(1,0)	(1,0)	(1,0)	(1,0)	
L1D -472>	(1,1)	(363,1)	(1,0)	(1,0)	(1,0)	(1,0)	(1,0)	(1,0)	(1,0)	(1,0)	(1,0)	(1,0)	(1,0)	(1,0)	(1,0)	(1,0)	
L1D -471>	(1,5)	(1,0)	(1,0)	(1,0)	(1,0)	(1,0)	(1,0)	(1,0)	(1,0)	(1,0)	(1,0)	(1,0)	(1,0)	(1,0)	(1,0)	(1,0)	
L1D -470>	(-2,2)	(1,0)	(1,0)	(1,0)	(1,0)	(1,0)	(1,0)	(1,0)	(1,0)	(1,0)	(1,0)	(1,0)	(1,0)	(1,0)	(1,0)	(1,0)	
L1D -469>	(-2,7)	(-1,1)	(1,0)	(1,0)	(1,0)	(1,0)	(1,0)	(1,0)	(1,0)	(1,0)	(1,0)	(1,0)	(1,0)	(1,0)	(1,0)	(1,0)	
L1D -468>	(3,2)	(6,2)	(382,2)	(392,2)	(1,0)	(1,0)	(1,0)	(1,0)	(1,0)	(1,0)	(1,0)	(1,0)	(1,0)	(1,0)	(1,0)	(1,0)	
L1D -467>	(1,3)	(2,1)	(1,0)	(1,0)	(1,0)	(1,0)	(1,0)	(1,0)	(1,0)	(1,0)	(1,0)	(1,0)	(1,0)	(1,0)	(1,0)	(1,0)	
L1D -466>	(1,3)	(1,0)	(1,0)	(1,0)	(1,0)	(1,0)	(1,0)	(1,0)	(1,0)	(1,0)	(1,0)	(1,0)	(1,0)	(1,0)	(1,0)	(1,0)	
L1D -465>	(1,11)	(255,1)	(2,1)	(1,0)	(1,0)	(1,0)	(1,0)	(1,0)	(1,0)	(1,0)	(1,0)	(1,0)	(1,0)	(1,0)	(1,0)	(1,0)	
L1D -464>	(1,5)	(2,1)	(1,0)	(1,0)	(1,0)	(1,0)	(1,0)	(1,0)	(1,0)	(1,0)	(1,0)	(1,0)	(1,0)	(1,0)	(1,0)	(1,0)	
L1D -463>	(1,15)	(2,5)	(363,1)	(1,0)	(1,0)	(1,0)	(1,0)	(1,0)	(1,0)	(1,0)	(1,0)	(1,0)	(1,0)	(1,0)	(1,0)	(1,0)	
L1D -462>	(9,2)	(383,2)	(1,10)	(2,4)	(1,0)	(1,0)	(1,0)	(1,0)	(1,0)	(1,0)	(1,0)	(1,0)	(1,0)	(1,0)	(1,0)	(1,0)	
L1D -461>	(1,4)	(2,8)	(1,0)	(1,0)	(1,0)	(1,0)	(1,0)	(1,0)	(1,0)	(1,0)	(1,0)	(1,0)	(1,0)	(1,0)	(1,0)	(1,0)	
L1D -460>	(1,0)	(1,0)	(1,0)	(1,0)	(1,0)	(1,0)	(1,0)	(1,0)	(1,0)	(1,0)	(1,0)	(1,0)	(1,0)	(1,0)	(1,0)	(1,0)	
L1D -459>	(1,0)	(1,0)	(1,0)	(1,0)	(1,0)	(1,0)	(1,0)	(1,0)	(1,0)	(1,0)	(1,0)	(1,0)	(1,0)	(1,0)	(1,0)	(1,0)	
L1D -458>	(1,0)	(1,0)	(1,0)	(1,0)	(1,0)	(1,0)	(1,0)	(1,0)	(1,0)	(1,0)	(1,0)	(1,0)	(1,0)	(1,0)	(1,0)	(1,0)	
L1D -457>	(1,1)	(1,0)	(1,0)	(1,0)	(1,0)	(1,0)	(1,0)	(1,0)	(1,0)	(1,0)	(1,0)	(1,0)	(1,0)	(1,0)	(1,0)	(1,0)	
L1D -456>	(1,0)	(1,0)	(1,0)	(1,0)	(1,0)	(1,0)	(1,0)	(1,0)	(1,0)	(1,0)	(1,0)	(1,0)	(1,0)	(1,0)	(1,0)	(1,0)	
L1D -455>	(1,0)	(1,0)	(1,0)	(1,0)	(1,0)	(1,0)	(1,0)	(1,0)	(1,0)	(1,0)	(1,0)	(1,0)	(1,0)	(1,0)	(1,0)	(1,0)	
L1D -454>	(-2,1)	(1,0)	(1,0)	(1,0)	(1,0)	(1,0)	(1,0)	(1,0)	(1,0)	(1,0)	(1,0)	(1,0)	(1,0)	(1,0)	(1,0)	(1,0)	
L1D -453>	(3,6)	(1,0)	(1,0)	(1,0)	(1,0)	(1,0)	(1,0)	(1,0)	(1,0)	(1,0)	(1,0)	(1,0)	(1,0)	(1,0)	(1,0)	(1,0)	
L1D -452>	(1,0)	(1,0)	(1,0)	(1,0)	(1,0)	(1,0)	(1,0)	(1,0)	(1,0)	(1,0)	(1,0)	(1,0)	(1,0)	(1,0)	(1,0)	(1,0)	
L1D -451>	(3,6)	(1,0)	(1,0)	(1,0)	(1,0)	(1,0)	(1,0)	(1,0)	(1,0)	(1,0)	(1,0)	(1,0)	(1,0)	(1,0)	(1,0)	(1,0)	
L1D -450>	(6,1)	(1,0)	(1,0)	(1,0)	(1,0)	(1,0)	(1,0)	(1,0)	(1,0)	(1,0)	(1,0)	(1,0)	(1,0)	(1,0)	(1,0)	(1,0)	
L1D -449>	(1,0)	(1,0)	(1,0)	(1,0)	(1,0)	(1,0)	(1,0)	(1,0)	(1,0)	(1,0)	(1,0)	(1,0)	(1,0)	(1,0)	(1,0)	(1,0)	
L1D -448>	(1,0)	(1,0)	(1,0)	(1,0)	(1,0)	(1,0)	(1,0)	(1,0)	(1,0)	(1,0)	(1,0)	(1,0)	(1,0)	(1,0)	(1,0)	(1,0)	
L1D -447>	(1,0)	(1,0)	(1,0)	(1,0)	(1,0)	(1,0)	(1,0)	(1,0)	(1,0)	(1,0)	(1,0)	(1,0)	(1,0)	(1,0)	(1,0)	(1,0)	
L1D -446>	(1,0)	(1,0)	(1,0)	(1,0)	(1,0)	(1,0)	(1,0)	(1,0)	(1,0)	(1,0)	(1,0)	(1,0)	(1,0)	(1,0)	(1,0)	(1,0)	
L1D -445>	(2,1)	(1,0)	(1,0)	(1,0)	(1,0)	(1,0)	(1,0)	(1,0)	(1,0)	(1,0)	(1,0)	(1,0)	(1,0)	(1,0)	(1,0)	(1,0)	
L1D -444>	(1,0)	(1,0)	(1,0)	(1,0)	(1,0)	(1,0)	(1,0)	(1,0)	(1,0)	(1,0)	(1,0)	(1,0)	(1,0)	(1,0)	(1,0)	(1,0)	
L1D -443>	(1,0)	(1,0)	(1,0)	(1,0)	(1,0)	(1,0)	(1,0)	(1,0)	(1,0)	(1,0)	(1,0)	(1,0)	(1,0)	(1,0)	(1,0)	(1,0)	
L1D -442>	(-2,1)	(1,0)	(1,0)	(1,0)	(1,0)	(1,0)	(1,0)	(1,0)	(1,0)	(1,0)	(1,0)	(1,0)	(1,0)	(1,0)	(1,0)	(1,0)	
L1D -441>	(1,0)	(1,0)	(1,0)	(1,0)	(1,0)	(1,0)	(1,0)	(1,0)	(1,0)	(1,0)	(1,0)	(1,0)	(1,0)	(1,0)	(1,0)	(1,0)	
L1D -440>	(196,1)	(250,1)	(1,0)	(1,0)	(1,0)	(1,0)	(1,0)	(1,0)	(1,0)	(1,0)	(1,0)	(1,0)	(1,0)	(1,0)	(1,0)	(1,0)	
L1D -439>	(1,0)	(1,0)	(1,0)	(1,0)	(1,0)	(1,0)	(1,0)	(1,0)	(1,0)	(1,0)	(1,0)	(1,0)	(1,0)	(1,0)	(1,0)	(1,0)	
L1D -438>	(1,0)	(1,0)	(1,0)	(1,0)	(1,0)	(1,0)	(1,0)	(1,0)	(1,0)	(1,0)	(1,0)	(1,0)	(1,0)	(1,0)	(1,0)	(1,0)	
L1D -437>	(1,0)	(1,0)	(1,0)	(1,0)	(1,0)	(1,0)	(1,0)	(1,0)	(1,0)	(1,0)	(1,0)	(1,0)	(1,0)	(1,0)	(1,0)	(1,0)	
L1D -436>	(1,0)	(1,0)	(1,0)	(1,0)	(1,0)	(1,0)	(1,0)	(1,0)	(1,0)	(1,0)	(1,0)	(1,0)	(1,0)	(1,0)	(1,0)	(1,0)	
L1D -435>	(1,0)	(1,0)	(1,0)	(1,0)	(1,0)	(1,0)	(1,0)	(1,0)	(1,0)	(1,0)	(1,0)	(1,0)	(1,0)	(1,0)	(1,0)	(1,0)	
L1D -434>	(1,0)	(1,0)	(1,0)	(1,0)	(1,0)	(1,0)	(1,0)	(1,0)	(1,0)	(1,0)	(1,0)	(1,0)	(1,0)	(1,0)	(1,0)	(1,0)	
L1D -433>	(1,0)	(1,0)	(1,0)	(1,0)	(1,0)	(1,0)	(1,0)	(1,0)	(1,0)	(1,0)	(1,0)	(1,0)	(1,0)	(1,0)	(1,0)	(1,0)	
L1D -432>	(1,0)	(1,0)	(1,0)	(1,0)	(1,0)	(1,0)	(1,0)	(1,0)	(1,0)	(1,0)	(1,0)	(1,0)	(1,0)	(1,0)	(1,0)	(1,0)	
L1D -431>	(1,0)	(1,0)	(1,0)	(1,0)	(1,0)	(1,0)	(1,0)	(1,0)	(1,0)	(1,0)	(1,0)	(1,0)	(1,0)	(1,0)	(1,0)	(1,0)	
L1D -430>	(1,1)	(78,1)	(1,0)	(1,0)	(1,0)	(1,0)	(1,0)	(1,0)	(1,0)	(1,0)	(1,0)	(1,0)	(1,0)	(1,0)	(1,0)	(1,0)	
L1D -429>	(1,1)	(1,0)	(1,0)	(1,0)	(1,0)	(1,0)	(1,0)	(1,0)	(1,0)	(1,0)	(1,0)	(1,0)	(1,0)	(1,0)	(1,0)	(1,0)	
L1D -428>	(36,1)	(178,1)	(1,0)	(1,0)	(1,0)	(1,0)	(1,0)	(1,0)	(1,0)	(1,0)	(1,0)	(1,0)	(1,0)	(1,0)	(1,0)	(1,0)	
L1D -427>	(1,0)	(1,0)	(1,0)	(1,0)	(1,0)	(1,0)	(1,0)	(1,0)	(1,0)	(1,0)	(1,0)	(1,0)	(1,0)	(1,0)	(1,0)	(1,0)	
L1D -426>	(2,1)	(1,0)	(1,0)	(1,0)	(1,0)	(1,0)	(1,0)	(1,0)	(1,0)	(1,0)	(1,0)	(1,0)	(1,0)	(1,0)	(1,0)	(1,0)	
L1D -425>	(1,0)	(1,0)	(1,0)	(1,0)	(1,0)	(1,0)	(1,0)	(1,0)	(1,0)	(1,0)	(1,0)	(1,0)	(1,0)	(1,0)	(1,0)	(1,0)	
L1D -424>	(1,0)	(1,0)	(1,0)	(1,0)	(1,0)	(1,0)	(1,0)	(1,0)	(1,0)	(1,0)	(1,0)	(1,0)	(1,0)	(1,0)	(1,0)	(1,0)	
L1D -423>	(1,0)	(1,0)	(1,0)	(1,0)	(1,0)	(1,0)	(1,0)	(1,0)	(1,0)	(1,0)	(1,0)	(1,0)	(1,0)	(1,0)	(1,0)	(1,0)	
L1D -422>	(1,0)	(1,0)	(1,0)	(1,0)	(1,0)	(1,0)	(1,0)	(1,0)	(1,0)	(1,0)	(1,0)	(1,0)	(1,0)	(1,0)	(1,0)	(1,0)	
L1D -421>	(1,0)	(1,0)	(1,0)	(1,0)	(1,0)	(1,0)	(1,0)	(1,0)	(1,0)	(1,0)	(1,0)	(1,0)	(1,0)	(1,0)	(1,0)	(1,0)	
L1D -420>	(3,1)	(1,0)	(1,0)	(1,0)	(1,0)	(1,0)	(1,0)	(1,0)	(1,0)	(1,0)	(1,0)	(1,0)	(1,0)	(1,0)	(1,0)	(1,0)	
L1D -419>	(1,0)	(1,0)	(1,0)	(1,0)	(1,0)	(1,0)	(1,0)	(1,0)	(1,0)	(1,0)	(1,0)	(1,0)	(1,0)	(1,0)	(1,0)	(1,0)	
L1D -418>	(3,2)	(1,0)	(1,0)	(1,0)	(1,0)	(1,0)	(1,0)	(1,0)	(1,0)	(1,0)	(1,0)	(1,0)	(1,0)	(1,0)	(1,0)	(1,0)	
L1D -417>	(1,0)	(1,0)	(1,0)	(1,0)	(1,0)	(1,0)	(1,0)	(1,0)	(1,0)	(1,0)	(1,0)	(1,0)	(1,0)	(1,0)	(1,0)	(1,0)	
L1D -416>	(1,0)	(1,0)	(1,0)	(1,0)	(1,0)	(1,0)	(1,0)	(1,0)	(1,0)	(1,0)	(1,0)	(1,0)	(1,0)	(1,0)	(1,0)	(1,0)	
L1D -415>	(1,1)	(353,1)	(1,0)	(1,0)	(1,0)	(1,0)	(1,0)	(1,0)	(1,0)	(1,0)	(1,0)	(1,0)	(1,0)	(1,0)	(1,0)	(1,0)	
L1D -414>	(3,2)	(1,0)	(1,0)	(1,0)	(1,0)	(1,0)	(1,0)	(1,0)	(1,0)	(1,0)	(1,0)	(1,0)	(1,0)	(1,0)	(1,0)	(1,0)	
L1D -413>	(1,0)	(1,0)	(1,0)	(1,0)	(1,0)	(1,0)	(1,0)	(1,0)	(1,0)	(1,0)	(1,0)	(1,0)	(1,0)	(1,0)	(1,0)	(1,0)	
L1D -412>	(1,2)	(3,6)	(1,0)	(1,0)	(1,0)	(1,0)	(1,0)	(1,0)	(1,0)	(1,0)	(1,0)	(1,0)	(1,0)	(1,0)	(1,0)	(1,0)	
L1D -411>	(381,1)	(465,1)	(1,1)	(1,0)	(1,0)	(1,0)	(1,0)	(1,0)	(1,0)	(1,0)	(1,0)	(1,0)	(1,0)	(1,0)	(1,0)	(1,0)	
L1D -410>	(1,0)	(1,0)	(1,0)	(1,0)	(1,0)	(1,0)	(1,0)	(1,0)	(1,0)	(1,0)	(1,0)	(1,0)	(1,0)	(1,0)	(1,0)	(1,0)	
L1D -409>	(1,1)	(150,1)	(383,1)	(3,1)	(1,0)	(1,0)	(1,0)	(1,0)	(1,0)	(1,0)	(1,0)	(1,0)	(1,0)	(1,0)	(1,0)	(1,0)	
L1D -408>	(1,0)	(1,0)	(1,0)	(1,0)	(1,0)	(1,0)	(1,0)	(1,0)	(1,0)	(1,0)	(1,0)	(1,0)	(1,0)	(1,0)	(1,0)	(1,0)	
L1D -407>	(246,1)	(397,1)	(1,0)	(1,0)	(1,0)	(1,0)	(1,0)	(1,0)	(1,0)	(1,0)	(1,0)	(1,0)	(1,0)	(1,0)	(1,0)	(1,0)	
L1D -406>	(-1,1)	(1,0)	(1,0)	(1,0)	(1,0)	(1,0)	(1,0)	(1,0)	(1,0)	(1,0)	(1,0)	(1,0)	(1,0)	(1,0)	(1,0)	(1,0)	
L1D -405>	(1,2)	(404,1)	(393,2)	(403,1)	(377,1)	(401,1)	(399,1)	(388,1)	(148,1)	(400,1)	(1,0)	(1,0)	(1,0)	(1,0)	(1,0)	(1,0)	
L1D -404>	(389,1)	(396,1)	(1,0)	(1,0)	(1,0)	(1,0)	(1,0)	(1,0)	(1,0)	(1,0)	(1,0)	(1,0)	(1,0)	(1,0)	(1,0)	(1,0)	
L1D -403>	(1,1)	(386,1)	(323,1)	(387,1)	(393,3)	(390,2)	(34,1)	(400,1)	(394,1)	(399,1)	(1,0)	(1,0)	(1,0)	(1,0)	(1,0)	(1,0)	
L1D -402>	(391,1)	(397,1)	(400,3)	(389,1)	(402,1)	(3,2)	(404,1)	(1,2)	(249,1)	(390,1)	(384,1)	(394,1)	(1,0)	(1,0)	(1,0)	(1,0)	
L1D -401>	(1,1)	(402,1)	(389,3)	(406,1)	(392,1)	(394,1)	(397,1)	(403,2)	(384,1)	(383,1)	(401,3)	(400,1)	(1,0)	(1,0)	(1,0)	(1,0)	
L1D -400>	(387,2)	(388,2)	(406,1)	(390,2)	(402,1)	(398,2)	(394,1)	(1,1)	(3,2)	(397,1)	(405,2)	(396,2)	(401,1)	(386,1)	(304,1)	(1,0)	
L1D -399>	(405,1)	(394,4)	(1,3)	(386,1)	(383,1)	(398,2)	(395,3)	(493,1)	(404,1)	(400,1)	(384,1)	(392,3)	(401,1)	(391,1)	(397,1)	(399,1)	
L1D -398>	(391,2)	(396,3)	(398,2)	(3,2)	(399,2)	(403,2)	(386,2)	(401,1)	(394,3)	(411,1)	(380,1)	(406,1)	(395,2)	(393,1)	(387,1)	(1,0)	
L1D -397>	(395,1)	(2,1)	(396,2)	(399,2)	(1,4)	(402,1)	(389,3)	(392,3)	(397,2)	(384,1)	(387,2)	(390,3)	(400,2)	(398,1)	(383,1)	(386,1)	
L1D -396>	(394,6)	(376,1)	(392,5)	(401,1)	(384,1)	(385,1)	(3,30)	(388,2)	(393,2)	(411,1)	(389,1)	(395,4)	(387,1)	(2,1)	(402,1)	(396,1)	
L1D -395>	(399,1)	(406,3)	(400,2)	(405,2)	(394,4)	(387,4)	(390,4)	(388,3)	(384,1)	(398,1)	(393,5)	(396,3)	(356,1)	(386,3)	(391,1)	(392,3)	
L1D -394>	(397,1)	(3,4)	(211,1)	(378,1)	(389,2)	(1,1)	(407,1)	(386,1)	(403,1)	(400,1)	(406,1)	(382,2)	(390,3)	(387,2)	(393,1)	(384,1)	
L1D -393>	(389,2)	(394,3)	(3,2)	(395,1)	(398,3)	(390,5)	(397,1)	(387,3)	(393,2)	(405,2)	(391,1)	(382,1)	(386,1)	(378,1)	(404,3)	(383,1)	
L1D -392>	(375,1)	(380,2)	(395,3)	(378,4)	(381,2)	(401,1)	(388,3)	(390,3)	(394,2)	(393,4)	(405,1)	(403,3)	(398,1)	(404,3)	(408,1)	(396,2)	
L1D -391>	(387,2)	(399,2)	(386,3)	(421,1)	(1,2)	(369,1)	(391,4)	(385,3)	(373,1)	(397,1)	(398,2)	(384,2)	(379,1)	(381,1)	(395,2)	(403,2)	
L1D -390>	(394,3)	(377,3)	(391,3)	(390,1)	(398,1)	(383,3)	(385,2)	(389,2)	(1,1)	(374,1)	(194,1)	(395,2)	(382,1)	(365,1)	(388,2)	(384,1)	
L1D -389>	(384,4)	(387,2)	(389,3)	(395,3)	(1,2)	(396,2)	(388,1)	(399,1)	(385,1)	(390,1)	(383,2)	(393,1)	(345,1)	(378,1)	(381,4)	(398,2)	
L1D -388>	(3,1)	(383,2)	(392,2)	(1,14)	(402,2)	(381,4)	(256,1)	(159,1)	(401,1)	(389,3)	(393,2)	(384,4)	(374,2)	(396,4)	(391,1)	(386,3)	
L1D -387>	(391,3)	(378,2)	(386,5)	(27,6)	(15,10)	(17,6)	(385,3)	(397,2)	(380,4)	(392,1)	(1,6)	(-78,1)	(393,3)	(400,2)	(388,4)	(374,4)	
L1D -386>	(27,2)	(388,4)	(1,2)	(15,2)	(387,2)	(376,2)	(391,3)	(382,1)	(393,3)	(374,3)	(404,1)	(375,1)	(392,2)	(394,3)	(398,1)	(379,1)	
L1D -385>	(374,2)	(388,1)	(396,4)	(398,2)	(1,5)	(393,2)	(392,2)	(384,2)	(351,1)	(382,3)	(397,2)	(377,1)	(372,3)	(373,1)	(379,1)	(391,2)	
L1D -384>	(371,1)	(374,2)	(1,2)	(383,2)	(331,1)	(398,3)	(394,2)	(378,4)	(401,1)	(357,1)	(387,3)	(380,2)	(388,2)	(376,2)	(386,1)	(391,1)	
L1D -383>	(1,10)	(376,1)	(386,3)	(387,1)	(377,1)	(382,8)	(373,1)	(383,3)	(379,1)	(385,2)	(384,4)	(184,1)	(389,1)	(378,2)	(380,2)	(390,1)	
L1D -382>	(385,2)	(375,3)	(3,4)	(384,1)	(102,1)	(378,5)	(380,1)	(373,3)	(387,3)	(386,1)	(368,1)	(383,1)	(377,1)	(345,1)	(401,1)	(142,1)	
L1D -381>	(360,1)	(1,6)	(386,2)	(381,2)	(373,1)	(365,1)	(371,3)	(393,1)	(370,1)	(389,1)	(385,3)	(383,3)	(350,1)	(352,1)	(375,1)	(377,2)	
L1D -380>	(377,4)	(376,1)	(373,2)	(318,1)	(367,1)	(364,2)	(378,2)	(362,1)	(372,2)	(324,1)	(371,3)	(374,2)	(369,2)	(386,1)	(389,2)	(387,1)	
L1D -379>	(372,2)	(376,7)	(389,1)	(381,2)	(3,2)	(1,6)	(392,1)	(363,1)	(378,10)	(361,1)	(394,1)	(324,1)	(373,3)	(377,4)	(364,2)	(382,1)	
L1D -378>	(382,4)	(372,4)	(370,1)	(381,1)	(383,3)	(325,1)	(-133,1)	(364,1)	(366,1)	(376,2)	(361,2)	(385,3)	(367,1)	(384,3)	(377,1)	(374,2)	
L1D -377>	(377,3)	(374,4)	(379,1)	(376,11)	(378,3)	(2,1)	(375,2)	(368,1)	(1,9)	(397,1)	(370,2)	(350,1)	(385,2)	(386,1)	(380,3)	(362,3)	
L1D -376>	(374,1)	(381,3)	(50,1)	(379,1)	(329,1)	(346,1)	(367,2)	(376,2)	(385,1)	(372,3)	(369,1)	(361,1)	(377,2)	(373,1)	(384,2)	(363,1)	
L1D -375>	(-2,1)	(368,2)	(378,1)	(383,2)	(380,5)	(374,15)	(370,3)	(1,15)	(377,1)	(385,1)	(-136,1)	(3,5)	(382,2)	(2,2)	(375,4)	(361,1)	
L1D -374>	(376,4)	(398,1)	(371,1)	(1,2)	(368,4)	(380,3)	(379,2)	(373,4)	(362,1)	(364,1)	(372,1)	(389,1)	(383,1)	(54,1)	(375,2)	(105,1)	
L1D -373>	(1,12)	(362,3)	(376,3)	(382,3)	(372,10)	(384,3)	(343,1)	(360,2)	(3,3)	(377,3)	(315,1)	(-2,4)	(352,1)	(359,1)	(364,3)	(379,2)	
L1D -372>	(379,2)	(365,4)	(369,4)	(1,3)	(375,3)	(371,1)	(134,1)	(376,1)	(-139,1)	(373,3)	(364,4)	(267,1)	(345,1)	(374,2)	(380,3)	(347,1)	
L1D -371>	(374,2)	(365,4)	(370,7)	(375,3)	(376,5)	(352,2)	(377,2)	(380,2)	(372,4)	(379,1)	(332,1)	(373,2)	(367,1)	(364,1)	(1,8)	(382,2)	
L1D -370>	(368,2)	(350,2)	(357,2)	(361,1)	(377,3)	(375,3)	(1,3)	(360,1)	(349,1)	(379,1)	(362,5)	(371,4)	(372,3)	(364,3)	(378,1)	(374,1)	
L1D -369>	(364,4)	(360,3)	(368,15)	(1,12)	(378,1)	(377,3)	(70,1)	(366,5)	(356,1)	(365,1)	(363,5)	(373,2)	(3,23)	(380,3)	(379,1)	(2,2)	
L1D -368>	(365,2)	(370,1)	(350,1)	(294,1)	(385,1)	(371,4)	(352,1)	(374,1)	(380,1)	(373,3)	(355,1)	(362,4)	(393,1)	(381,1)	(383,1)	(363,2)	
L1D -367>	(366,2)	(372,3)	(370,2)	(365,3)	(9,2)	(373,1)	(375,2)	(99,1)	(369,2)	(363,2)	(376,2)	(355,2)	(1,13)	(364,2)	(386,1)	(380,2)	
L1D -366>	(376,3)	(375,1)	(365,2)	(377,1)	(1,2)	(383,1)	(15,6)	(371,1)	(349,3)	(368,3)	(360,2)	(362,3)	(-145,1)	(3,2)	(363,2)	(353,2)	
L1D -365>	(364,12)	(1,12)	(362,5)	(385,2)	(372,2)	(368,2)	(316,1)	(363,1)	(357,2)	(373,4)	(365,2)	(4,1)	(369,2)	(352,1)	(371,1)	(361,3)	
L1D -364>	(354,1)	(1,6)	(357,2)	(2,1)	(364,3)	(355,2)	(367,2)	(356,1)	(374,3)	(363,4)	(352,2)	(376,2)	(375,2)	(361,2)	(365,3)	(359,2)	
L1D -363>	(350,3)	(366,2)	(367,3)	(359,5)	(1,20)	(368,2)	(365,1)	(362,13)	(358,4)	(354,2)	(57,1)	(3,3)	(357,5)	(355,2)	(364,3)	(51,1)	
L1D -362>	(357,4)	(373,1)	(1,4)	(348,1)	(366,1)	(361,4)	(362,1)	(360,2)	(118,1)	(363,3)	(347,1)	(369,2)	(351,1)	(350,1)	(355,1)	(167,1)	
L1D -361>	(376,2)	(348,1)	(366,2)	(360,14)	(-1,1)	(356,4)	(370,1)	(338,1)	(1,19)	(367,4)	(334,1)	(377,1)	(359,1)	(361,2)	(368,4)	(364,2)	
L1D -360>	(358,1)	(352,2)	(1,7)	(347,1)	(349,2)	(345,3)	(340,2)	(383,1)	(373,3)	(353,1)	(367,1)	(364,4)	(366,2)	(360,3)	(361,3)	(363,6)	
L1D -359>	(358,22)	(342,2)	(346,2)	(348,3)	(357,2)	(382,1)	(1,25)	(125,1)	(340,2)	(359,2)	(344,2)	(356,2)	(378,1)	(371,1)	(365,3)	(379,1)	
L1D -358>	(356,6)	(366,2)	(363,2)	(355,3)	(351,2)	(354,2)	(367,3)	(3,7)	(353,3)	(371,2)	(345,1)	(357,3)	(352,3)	(361,2)	(372,2)	(374,1)	
L1D -357>	(356,22)	(355,5)	(358,5)	(348,2)	(366,2)	(362,2)	(376,2)	(357,5)	(1,10)	(350,5)	(368,1)	(374,2)	(361,1)	(372,1)	(360,4)	(349,1)	
L1D -356>	(1,4)	(353,4)	(341,2)	(349,2)	(355,2)	(402,1)	(354,4)	(366,2)	(363,2)	(351,5)	(356,4)	(357,2)	(348,2)	(350,1)	(343,2)	(352,2)	
L1D -355>	(354,17)	(355,7)	(370,1)	(348,3)	(350,2)	(1,21)	(372,1)	(367,2)	(352,3)	(343,2)	(375,1)	(150,1)	(306,1)	(344,3)	(362,2)	(368,3)	
L1D -354>	(361,1)	(1,4)	(343,1)	(364,1)	(354,4)	(349,1)	(370,2)	(226,1)	(352,4)	(386,1)	(351,3)	(345,1)	(-157,1)	(357,2)	(331,1)	(358,1)	
L1D -353>	(358,5)	(322,2)	(364,3)	(334,2)	(350,3)	(363,4)	(395,1)	(345,6)	(344,1)	(356,2)	(1,16)	(352,19)	(348,2)	(357,2)	(354,4)	(353,6)	
L1D -352>	(350,2)	(340,3)	(353,2)	(359,2)	(372,1)	(1,11)	(352,3)	(345,2)	(361,3)	(337,2)	(319,1)	(341,2)	(339,2)	(360,3)	(351,3)	(355,3)	
L1D -351>	(350,14)	(366,1)	(356,4)	(349,2)	(347,4)	(365,2)	(354,4)	(332,2)	(344,3)	(1,17)	(326,1)	(316,1)	(358,5)	(361,2)	(370,1)	(346,3)	
L1D -350>	(344,2)	(346,3)	(342,2)	(1,4)	(349,3)	(2,6)	(281,1)	(333,1)	(351,2)	(339,1)	(335,1)	(371,3)	(382,1)	(330,1)	(341,2)	(347,3)	
L1D -349>	(350,1)	(348,17)	(346,4)	(64,1)	(322,1)	(3,1)	(354,2)	(1,12)	(340,2)	(352,3)	(358,2)	(331,1)	(353,1)	(383,1)	(349,3)	(342,2)	
L1D -348>	(351,4)	(3,5)	(1,17)	(348,4)	(349,2)	(326,1)	(333,1)	(336,2)	(347,4)	(352,2)	(355,3)	(370,1)	(5,1)	(363,1)	(86,1)	(341,1)	
L1D -347>	(346,13)	(348,4)	(1,11)	(300,1)	(334,2)	(345,5)	(355,2)	(344,4)	(351,4)	(364,1)	(350,4)	(361,2)	(353,3)	(342,2)	(347,2)	(340,3)	
L1D -346>	(340,1)	(341,3)	(-1,1)	(351,1)	(338,2)	(359,2)	(350,4)	(344,5)	(353,2)	(357,1)	(339,2)	(336,2)	(348,2)	(3,3)	(1,4)	(354,1)	
L1D -345>	(352,3)	(344,11)	(339,4)	(342,1)	(346,3)	(355,2)	(341,1)	(349,4)	(1,14)	(350,3)	(343,3)	(337,1)	(340,2)	(3,2)	(5,1)	(326,1)	
L1D -344>	(5,1)	(339,1)	(345,5)	(329,1)	(-23,1)	(24,1)	(1,2)	(351,3)	(337,1)	(343,6)	(349,2)	(140,1)	(152,1)	(336,3)	(347,2)	(346,1)	
L1D -343>	(335,2)	(342,16)	(1,26)	(3,4)	(343,1)	(330,3)	(355,3)	(338,2)	(-2,3)	(340,3)	(351,1)	(353,1)	(356,2)	(-16,1)	(354,1)	(6,4)	
L1D -342>	(1,3)	(348,1)	(335,1)	(337,2)	(315,1)	(334,3)	(74,1)	(257,2)	(340,2)	(342,3)	(341,3)	(320,3)	(331,1)	(355,2)	(346,3)	(2,1)	
L1D -341>	(328,2)	(1,14)	(345,2)	(342,5)	(340,19)	(346,2)	(348,2)	(336,3)	(341,5)	(333,1)	(350,2)	(162,1)	(349,1)	(335,4)	(344,4)	(334,1)	
L1D -340>	(334,6)	(1,5)	(346,5)	(353,1)	(343,2)	(352,1)	(27,1)	(357,1)	(416,1)	(355,2)	(322,2)	(349,2)	(326,2)	(340,3)	(339,3)	(335,1)	
L1D -339>	(341,2)	(340,5)	(344,2)	(338,13)	(348,2)	(352,3)	(336,2)	(350,1)	(1,12)	(346,2)	(332,4)	(357,1)	(358,1)	(199,1)	(364,1)	(343,2)	
L1D -338>	(341,4)	(343,3)	(330,1)	(347,1)	(1,2)	(329,1)	(355,1)	(348,2)	(337,3)	(338,5)	(323,1)	(-33,1)	(339,3)	(328,1)	(324,1)	(345,2)	
L1D -337>	(1,18)	(336,18)	(337,1)	(342,1)	(341,3)	(333,1)	(338,3)	(346,2)	(323,2)	(372,1)	(185,1)	(364,2)	(356,1)	(343,2)	(348,2)	(331,3)	
L1D -336>	(3,2)	(337,7)	(1,3)	(2,2)	(344,5)	(335,4)	(338,2)	(346,1)	(330,3)	(329,2)	(334,2)	(321,2)	(316,1)	(326,1)	(377,1)	(331,3)	
L1D -335>	(-62,1)	(342,1)	(344,4)	(343,1)	(331,3)	(340,2)	(1,7)	(339,3)	(325,1)	(324,2)	(310,1)	(336,3)	(108,1)	(334,12)	(347,1)	(326,3)	
L1D -334>	(334,3)	(1,4)	(330,4)	(329,3)	(344,2)	(362,1)	(326,3)	(341,3)	(346,2)	(338,2)	(355,1)	(337,1)	(174,1)	(343,4)	(321,1)	(332,1)	
L1D -333>	(341,2)	(346,1)	(331,4)	(335,3)	(332,13)	(1,12)	(330,1)	(336,5)	(343,2)	(340,1)	(321,2)	(74,1)	(-56,1)	(333,3)	(337,4)	(318,1)	
L1D -332>	(343,3)	(326,2)	(337,2)	(336,5)	(335,1)	(320,1)	(339,3)	(349,1)	(290,1)	(322,1)	(340,3)	(332,2)	(334,3)	(327,4)	(321,1)	(331,1)	
L1D -331>	(317,1)	(330,15)	(334,3)	(1,14)	(328,2)	(339,3)	(331,2)	(340,1)	(370,1)	(336,1)	(401,1)	(329,3)	(326,4)	(3,1)	(312,1)	(360,1)	
L1D -330>	(339,2)	(84,1)	(331,2)	(324,3)	(1,3)	(329,6)	(317,1)	(323,1)	(332,3)	(123,1)	(326,2)	(336,2)	(322,3)	(321,3)	(318,1)	(342,1)	
L1D -329>	(337,2)	(334,4)	(326,1)	(336,2)	(332,2)	(329,6)	(1,10)	(324,4)	(328,8)	(325,2)	(323,3)	(318,1)	(335,3)	(358,1)	(327,4)	(330,1)	
L1D -328>	(324,3)	(3,1)	(330,2)	(334,1)	(319,3)	(316,1)	(340,1)	(320,1)	(332,2)	(327,2)	(1,1)	(329,1)	(270,1)	(313,1)	(336,1)	(354,1)	
L1D -327>	(333,1)	(340,3)	(326,11)	(332,3)	(329,3)	(1,13)	(336,3)	(327,1)	(267,2)	(312,1)	(328,2)	(325,1)	(317,1)	(314,1)	(331,1)	(337,2)	
L1D -326>	(317,3)	(334,2)	(323,2)	(1,3)	(340,1)	(353,1)	(333,1)	(347,1)	(371,1)	(324,3)	(312,3)	(321,4)	(335,2)	(357,1)	(316,2)	(339,3)	
L1D -325>	(320,4)	(335,3)	(337,4)	(332,3)	(331,2)	(315,1)	(324,10)	(328,3)	(308,1)	(317,1)	(326,2)	(327,4)	(325,4)	(319,2)	(1,10)	(343,1)	
L1D -324>	(327,4)	(323,6)	(331,3)	(344,3)	(315,1)	(321,5)	(311,3)	(194,1)	(322,3)	(334,1)	(329,4)	(333,1)	(319,4)	(312,1)	(335,2)	(313,2)	
L1D -323>	(324,2)	(323,5)	(318,2)	(1,11)	(327,2)	(334,2)	(340,1)	(314,2)	(100,1)	(-117,1)	(77,1)	(321,2)	(322,10)	(315,1)	(329,2)	(415,1)	
L1D -322>	(319,2)	(329,1)	(1,5)	(315,2)	(307,2)	(322,5)	(316,2)	(313,1)	(324,2)	(317,2)	(36,1)	(325,4)	(326,5)	(104,1)	(25,1)	(321,2)	
L1D -321>	(316,2)	(1,11)	(332,2)	(313,1)	(318,4)	(323,3)	(320,5)	(322,2)	(338,1)	(321,3)	(317,2)	(319,2)	(303,1)	(3,5)	(364,1)	(334,3)	
L1D -320>	(1,7)	(340,1)	(328,4)	(330,1)	(313,1)	(2,9)	(323,2)	(331,1)	(258,1)	(322,2)	(341,1)	(317,2)	(320,3)	(306,1)	(314,2)	(102,1)	
L1D -319>	(325,2)	(318,16)	(327,1)	(309,1)	(1,6)	(311,3)	(307,2)	(336,1)	(306,1)	(314,2)	(-2,3)	(326,2)	(320,3)	(323,3)	(332,1)	(330,1)	
L1D -318>	(329,2)	(318,3)	(321,4)	(327,3)	(1,2)	(313,3)	(322,2)	(314,1)	(27,2)	(320,3)	(316,3)	(311,1)	(12,3)	(240,1)	(304,1)	(323,3)	
L1D -317>	(-16,1)	(310,2)	(340,2)	(321,5)	(312,1)	(305,2)	(318,3)	(336,4)	(324,1)	(332,1)	(334,1)	(316,7)	(352,1)	(350,1)	(1,12)	(320,1)	
L1D -316>	(313,1)	(1,5)	(325,2)	(319,4)	(332,1)	(322,2)	(321,2)	(316,2)	(323,2)	(317,2)	(305,2)	(355,1)	(327,1)	(330,1)	(302,1)	(318,2)	
L1D -315>	(323,3)	(326,2)	(313,3)	(252,1)	(297,1)	(315,3)	(324,2)	(299,1)	(1,14)	(311,2)	(310,3)	(348,1)	(312,3)	(355,1)	(338,2)	(325,2)	
L1D -314>	(301,1)	(318,2)	(313,1)	(311,2)	(320,2)	(317,2)	(303,1)	(308,3)	(325,3)	(1,5)	(333,1)	(299,3)	(307,2)	(305,3)	(321,2)	(304,1)	
L1D -313>	(1,12)	(307,1)	(318,1)	(312,11)	(314,2)	(3,5)	(346,1)	(326,3)	(311,2)	(305,3)	(299,1)	(296,1)	(309,1)	(317,1)	(316,5)	(257,1)	
L1D -312>	(303,2)	(4,2)	(307,4)	(310,7)	(317,4)	(309,1)	(1,9)	(331,1)	(312,2)	(308,2)	(328,1)	(304,2)	(3,4)	(322,1)	(171,1)	(314,2)	
L1D -311>	(307,1)	(323,3)	(305,3)	(300,2)	(311,5)	(336,1)	(306,3)	(302,2)	(310,5)	(320,3)	(350,2)	(341,1)	(198,1)	(308,2)	(296,1)	(270,1)	
L1D -310>	(334,1)	(300,2)	(217,1)	(312,4)	(306,3)	(314,2)	(1,3)	(321,2)	(307,2)	(330,1)	(316,4)	(-8,1)	(3,4)	(158,1)	(326,1)	(180,1)	
L1D -309>	(309,6)	(308,5)	(1,6)	(315,5)	(312,3)	(306,6)	(297,1)	(326,1)	(90,1)	(311,2)	(307,4)	(305,1)	(3,18)	(229,1)	(300,2)	(313,3)	
L1D -308>	(301,3)	(299,5)	(1,3)	(314,3)	(16,1)	(6,1)	(294,2)	(312,2)	(317,4)	(307,6)	(321,2)	(286,1)	(4,3)	(288,1)	(309,4)	(305,3)	
L1D -307>	(303,3)	(312,3)	(306,7)	(313,2)	(317,2)	(321,1)	(304,5)	(222,1)	(314,5)	(296,2)	(318,1)	(3,9)	(300,3)	(301,2)	(1,4)	(320,1)	
L1D -306>	(302,4)	(304,3)	(311,5)	(1,9)	(309,2)	(312,2)	(306,2)	(3,1)	(335,1)	(305,3)	(298,2)	(315,2)	(313,3)	(288,1)	(296,2)	(224,1)	
L1D -305>	(4,4)	(315,1)	(316,3)	(313,1)	(301,3)	(290,1)	(293,2)	(309,2)	(1,4)	(331,1)	(322,1)	(320,1)	(303,2)	(295,3)	(304,2)	(298,2)	
L1D -304>	(2,4)	(302,3)	(308,1)	(292,1)	(319,1)	(1,1)	(312,1)	(311,1)	(293,1)	(10,1)	(306,2)	(305,1)	(128,2)	(298,2)	(315,1)	(297,2)	
L1D -303>	(309,2)	(313,3)	(312,2)	(302,6)	(299,3)	(58,1)	(1,7)	(303,2)	(305,2)	(297,1)	(296,1)	(291,1)	(292,1)	(293,3)	(311,1)	(310,3)	
L1D -302>	(311,1)	(307,2)	(294,1)	(298,4)	(295,4)	(302,2)	(308,2)	(292,2)	(299,5)	(284,1)	(322,1)	(309,2)	(305,3)	(312,1)	(301,1)	(314,1)	
L1D -301>	(312,2)	(297,2)	(4,4)	(288,2)	(298,2)	(300,1)	(294,2)	(166,1)	(299,1)	(293,1)	(326,1)	(314,1)	(1,3)	(295,2)	(306,5)	(305,2)	
L1D -300>	(298,3)	(302,6)	(3,2)	(318,2)	(1,3)	(305,5)	(300,2)	(303,1)	(301,2)	(315,1)	(296,3)	(293,1)	(283,1)	(295,2)	(60,2)	(289,2)	
L1D -299>	(298,4)	(228,1)	(308,1)	(343,1)	(305,2)	(-66,1)	(44,1)	(297,3)	(306,1)	(300,1)	(290,2)	(291,1)	(1,8)	(2,2)	(301,4)	(314,1)	
L1D -298>	(307,1)	(259,1)	(298,1)	(309,2)	(292,5)	(299,1)	(166,1)	(310,1)	(290,1)	(301,3)	(1,4)	(3,4)	(306,4)	(287,2)	(291,2)	(295,3)	
L1D -297>	(304,2)	(294,4)	(309,2)	(293,2)	(299,4)	(290,3)	(291,1)	(305,2)	(36,1)	(258,1)	(288,2)	(1,4)	(303,1)	(50,1)	(281,3)	(311,1)	
L1D -296>	(290,2)	(309,1)	(293,2)	(281,3)	(303,2)	(287,1)	(2,1)	(294,3)	(296,5)	(298,1)	(299,3)	(306,1)	(314,1)	(356,1)	(1,5)	(276,1)	
L1D -295>	(283,2)	(305,2)	(288,2)	(293,2)	(1,8)	(274,1)	(294,5)	(290,1)	(301,2)	(306,3)	(282,1)	(284,1)	(297,1)	(311,1)	(280,1)	(300,2)	
L1D -294>	(293,3)	(276,1)	(285,1)	(297,3)	(1,5)	(301,2)	(302,1)	(216,1)	(294,5)	(299,2)	(300,1)	(291,2)	(329,1)	(100,1)	(282,1)	(289,1)	
L1D -293>	(296,2)	(286,1)	(298,2)	(293,2)	(304,1)	(306,1)	(2,1)	(297,1)	(1,9)	(301,1)	(-12,1)	(-68,1)	(290,1)	(318,1)	(6,6)	(275,1)	
L1D -292>	(1,9)	(295,3)	(287,3)	(292,1)	(297,4)	(-2,3)	(2,4)	(289,5)	(302,1)	(7,1)	(282,2)	(306,1)	(280,1)	(277,1)	(290,1)	(288,1)	
L1D -291>	(290,4)	(291,3)	(300,3)	(281,4)	(1,5)	(168,2)	(3,2)	(296,1)	(284,2)	(287,3)	(292,3)	(289,4)	(295,2)	(2,2)	(277,1)	(302,4)	
L1D -290>	(291,4)	(290,4)	(288,1)	(280,1)	(269,1)	(294,1)	(286,3)	(287,2)	(296,2)	(297,1)	(289,2)	(300,1)	(298,2)	(277,3)	(1,1)	(282,1)	
L1D -289>	(2,2)	(291,2)	(-2,3)	(1,12)	(282,2)	(297,1)	(292,1)	(284,2)	(294,1)	(273,1)	(3,2)	(311,1)	(280,2)	(285,1)	(289,5)	(304,1)	
L1D -288>	(292,4)	(278,2)	(1,2)	(289,2)	(280,2)	(285,3)	(290,3)	(286,3)	(235,1)	(294,3)	(288,2)	(293,2)	(299,2)	(2,3)	(313,1)	(281,2)	
L1D -287>	(294,2)	(299,2)	(21,2)	(287,3)	(286,1)	(296,3)	(1,10)	(280,2)	(288,1)	(292,3)	(301,2)	(282,2)	(375,1)	(184,1)	(279,3)	(308,1)	
L1D -286>	(293,3)	(299,2)	(270,3)	(-2,6)	(287,3)	(290,1)	(273,1)	(285,3)	(332,1)	(1,2)	(286,4)	(288,2)	(283,1)	(291,2)	(282,2)	(295,1)	
L1D -285>	(1,10)	(293,2)	(281,4)	(2,2)	(274,3)	(272,2)	(276,1)	(288,4)	(278,2)	(40,1)	(284,5)	(292,2)	(304,1)	(282,2)	(298,1)	(290,2)	
L1D -284>	(2,2)	(278,1)	(286,2)	(292,2)	(280,4)	(281,4)	(270,2)	(296,3)	(267,1)	(4,2)	(1,6)	(285,2)	(273,2)	(288,2)	(287,1)	(343,1)	
L1D -283>	(282,3)	(273,3)	(1,13)	(278,2)	(276,2)	(3,2)	(279,2)	(283,4)	(287,1)	(267,1)	(189,1)	(300,2)	(284,1)	(272,1)	(291,2)	(311,1)	
L1D -282>	(224,1)	(281,3)	(279,2)	(272,2)	(-1,1)	(-226,1)	(290,6)	(286,1)	(316,1)	(289,2)	(275,2)	(1,4)	(268,2)	(271,2)	(273,1)	(214,1)	
L1D -281>	(270,1)	(303,1)	(283,3)	(284,3)	(276,4)	(282,6)	(31,1)	(278,2)	(285,2)	(2,8)	(317,1)	(286,1)	(279,1)	(281,1)	(293,1)	(1,5)	
L1D -280>	(291,2)	(279,2)	(281,7)	(283,3)	(282,5)	(3,10)	(264,2)	(280,2)	(278,4)	(63,1)	(273,1)	(297,1)	(1,5)	(-2,1)	(284,2)	(261,2)	
L1D -279>	(-232,1)	(286,2)	(282,1)	(276,2)	(236,1)	(273,5)	(283,2)	(363,1)	(297,2)	(287,2)	(1,10)	(292,1)	(274,8)	(284,2)	(257,1)	(302,1)	
L1D -278>	(276,3)	(291,2)	(273,1)	(306,1)	(267,2)	(257,1)	(296,1)	(279,2)	(271,3)	(278,2)	(284,3)	(1,4)	(272,1)	(282,2)	(274,2)	(280,2)	
L1D -277>	(289,2)	(278,2)	(1,11)	(338,1)	(284,1)	(274,1)	(271,2)	(280,3)	(275,2)	(-232,1)	(288,2)	(108,1)	(282,3)	(269,1)	(263,2)	(-105,1)	
L1D -276>	(-235,1)	(259,1)	(281,3)	(276,4)	(271,6)	(1,6)	(3,11)	(283,2)	(278,2)	(269,3)	(274,1)	(277,1)	(273,1)	(275,2)	(280,1)	(272,1)	
L1D -275>	(278,3)	(291,1)	(269,2)	(2,1)	(1,14)	(271,1)	(3,2)	(279,2)	(276,1)	(270,1)	(281,1)	(284,1)	(258,1)	(277,1)	(286,1)	(222,1)	
L1D -274>	(1,4)	(288,1)	(2,3)	(285,6)	(76,1)	(3,18)	(277,3)	(276,2)	(283,1)	(271,2)	(278,3)	(280,3)	(279,3)	(269,2)	(268,1)	(274,3)	
L1D -273>	(1,4)	(253,1)	(282,1)	(274,1)	(268,3)	(272,3)	(260,1)	(271,3)	(202,1)	(265,1)	(15,3)	(3,4)	(-235,1)	(278,2)	(275,2)	(263,1)	
L1D -272>	(266,3)	(274,1)	(285,1)	(273,3)	(268,3)	(277,4)	(278,3)	(281,3)	(1,7)	(271,3)	(-52,1)	(276,2)	(263,2)	(280,4)	(284,1)	(279,2)	
L1D -271>	(271,4)	(265,2)	(281,4)	(1,11)	(279,2)	(15,1)	(269,2)	(262,4)	(276,4)	(258,2)	(4,3)	(259,1)	(350,1)	(3,2)	(260,3)	(270,2)	
L1D -270>	(235,1)	(287,1)	(265,3)	(1,2)	(280,1)	(-2,1)	(282,1)	(269,4)	(-238,1)	(-96,1)	(273,1)	(3,2)	(276,1)	(275,1)	(278,2)	(266,2)	
L1D -269>	(270,5)	(278,1)	(260,1)	(1,9)	(262,1)	(273,2)	(281,2)	(274,3)	(269,3)	(268,1)	(266,2)	(275,3)	(272,2)	(288,2)	(267,1)	(187,1)	
L1D -268>	(268,4)	(261,4)	(267,4)	(1,4)	(202,1)	(265,4)	(276,2)	(259,2)	(3,5)	(-2,3)	(10,1)	(279,2)	(269,2)	(278,1)	(62,1)	(262,1)	
L1D -267>	(266,2)	(2,2)	(271,2)	(265,5)	(276,3)	(260,3)	(250,1)	(270,5)	(277,2)	(3,1)	(272,2)	(58,1)	(229,1)	(283,1)	(259,1)	(-241,1)	
L1D -266>	(255,4)	(266,5)	(259,2)	(271,1)	(290,1)	(267,2)	(1,8)	(270,2)	(268,3)	(260,1)	(273,3)	(262,1)	(275,2)	(257,1)	(269,2)	(256,5)	
L1D -265>	(2,2)	(1,11)	(250,2)	(282,1)	(267,3)	(210,1)	(265,2)	(262,2)	(254,1)	(260,2)	(57,1)	(266,1)	(263,1)	(-88,1)	(269,1)	(258,2)	
L1D -264>	(263,3)	(271,1)	(62,1)	(246,1)	(262,2)	(270,1)	(2,5)	(283,1)	(272,2)	(1,8)	(267,1)	(260,2)	(265,2)	(252,1)	(266,3)	(259,3)	
L1D -263>	(1,10)	(247,1)	(257,2)	(263,3)	(260,2)	(264,2)	(271,1)	(165,1)	(268,1)	(261,4)	(309,1)	(259,3)	(251,2)	(275,2)	(207,1)	(258,1)	
L1D -262>	(264,3)	(87,1)	(1,5)	(260,6)	(249,2)	(3,4)	(258,2)	(254,3)	(277,1)	(256,2)	(216,1)	(315,1)	(271,1)	(253,1)	(268,1)	(272,1)	
L1D -261>	(1,9)	(-56,1)	(254,2)	(266,4)	(249,1)	(262,4)	(261,3)	(268,3)	(265,1)	(248,1)	(255,2)	(256,3)	(260,2)	(257,3)	(274,1)	(-247,1)	
L1D -260>	(261,2)	(217,18)	(269,2)	(267,1)	(1,5)	(257,3)	(256,2)	(263,7)	(259,3)	(248,4)	(274,1)	(265,3)	(255,1)	(253,2)	(14,1)	(249,2)	
L1D -259>	(262,2)	(1,7)	(258,1)	(252,2)	(253,2)	(15,1)	(267,1)	(247,1)	(263,3)	(273,2)	(254,1)	(249,3)	(245,1)	(259,3)	(255,3)	(256,2)	
L1D -258>	(253,2)	(275,2)	(254,5)	(265,1)	(261,2)	(252,2)	(269,1)	(262,1)	(250,2)	(1,3)	(243,2)	(247,3)	(263,3)	(3,8)	(251,2)	(5,1)	
L1D -257>	(244,4)	(1,10)	(261,3)	(2,2)	(254,4)	(260,1)	(258,2)	(265,1)	(248,1)	(256,3)	(233,1)	(238,1)	(251,1)	(271,1)	(206,1)	(253,3)	
L1D -256>	(259,4)	(269,2)	(260,1)	(247,1)	(257,3)	(250,5)	(240,1)	(54,1)	(262,4)	(266,2)	(270,1)	(267,1)	(3,7)	(1,8)	(249,1)	(256,3)	
L1D -255>	(1,8)	(3,3)	(262,3)	(245,1)	(226,1)	(259,2)	(268,1)	(251,3)	(255,3)	(266,2)	(254,3)	(239,1)	(258,3)	(264,2)	(232,1)	(256,1)	
L1D -254>	(246,1)	(217,1)	(251,4)	(1,4)	(255,3)	(257,2)	(269,3)	(260,3)	(250,3)	(266,2)	(252,2)	(253,3)	(278,1)	(248,2)	(3,1)	(182,1)	
L1D -253>	(273,1)	(264,2)	(2,1)	(1,18)	(251,3)	(265,1)	(257,2)	(269,2)	(249,3)	(217,1)	(245,1)	(260,2)	(231,1)	(253,5)	(240,1)	(120,1)	
L1D -252>	(255,3)	(248,3)	(256,1)	(7,1)	(262,4)	(245,3)	(270,1)	(247,1)	(254,2)	(238,2)	(271,1)	(241,3)	(269,1)	(250,3)	(257,1)	(-256,1)	
L1D -251>	(249,2)	(1,6)	(258,4)	(338,1)	(236,1)	(256,3)	(235,2)	(146,1)	(269,1)	(259,1)	(44,1)	(213,1)	(-22,1)	(265,1)	(273,2)	(-18,1)	
L1D -250>	(339,1)	(1,7)	(249,5)	(248,1)	(246,5)	(247,2)	(192,1)	(256,1)	(243,4)	(254,1)	(257,1)	(264,2)	(235,1)	(251,3)	(259,1)	(244,2)	
L1D -249>	(238,4)	(245,1)	(252,1)	(235,1)	(258,2)	(248,1)	(239,1)	(27,1)	(246,2)	(251,2)	(242,2)	(249,1)	(1,12)	(81,2)	(263,1)	(260,2)	
L1D -248>	(241,2)	(257,2)	(245,4)	(246,3)	(253,3)	(249,2)	(248,1)	(250,5)	(238,1)	(247,2)	(261,1)	(5,1)	(243,1)	(244,1)	(254,1)	(258,1)	
L1D -247>	(246,7)	(240,3)	(242,2)	(249,2)	(261,2)	(239,2)	(251,4)	(245,1)	(1,9)	(241,2)	(206,1)	(244,4)	(255,2)	(3,1)	(253,1)	(258,2)	
L1D -246>	(229,1)	(242,1)	(247,2)	(244,3)	(245,2)	(251,1)	(235,2)	(231,1)	(243,3)	(252,2)	(3,6)	(250,1)	(248,3)	(260,1)	(2,2)	(255,1)	
L1D -245>	(1,13)	(247,6)	(237,1)	(236,3)	(2,1)	(254,3)	(251,2)	(249,4)	(343,1)	(245,5)	(242,5)	(234,1)	(250,2)	(243,3)	(252,1)	(248,2)	
L1D -244>	(1,3)	(233,2)	(254,2)	(238,3)	(241,1)	(240,4)	(-125,1)	(211,1)	(3,4)	(248,2)	(266,1)	(257,1)	(198,1)	(236,3)	(308,1)	(250,2)	
L1D -243>	(248,1)	(260,1)	(1,9)	(242,4)	(241,3)	(5,1)	(243,4)	(3,2)	(245,2)	(244,1)	(253,1)	(237,2)	(234,2)	(246,4)	(222,1)	(257,1)	
L1D -242>	(241,4)	(-2,1)	(244,3)	(1,3)	(110,1)	(242,4)	(346,1)	(245,2)	(229,1)	(234,1)	(5,1)	(256,1)	(60,1)	(247,2)	(252,1)	(238,1)	
L1D -241>	(248,2)	(256,1)	(251,1)	(-1,1)	(233,2)	(1,10)	(229,1)	(244,3)	(-2,3)	(242,3)	(249,2)	(344,1)	(260,2)	(3,4)	(236,4)	(-155,1)	
L1D -240>	(228,2)	(217,24)	(237,2)	(225,2)	(243,2)	(1,3)	(241,2)	(238,5)	(251,2)	(232,2)	(248,3)	(236,4)	(252,3)	(242,3)	(235,2)	(3,1)	
L1D -239>	(130,1)	(229,2)	(249,2)	(-142,1)	(245,3)	(253,2)	(349,1)	(232,1)	(237,1)	(241,5)	(1,24)	(239,4)	(248,2)	(240,1)	(231,1)	(246,1)	
L1D -238>	(226,1)	(236,4)	(-2,1)	(234,2)	(242,2)	(217,3)	(238,1)	(228,3)	(247,1)	(220,2)	(3,4)	(90,1)	(1,3)	(-32,1)	(250,1)	(232,3)	
L1D -237>	(235,3)	(1,11)	(244,2)	(229,3)	(9,1)	(230,2)	(239,2)	(247,2)	(227,1)	(225,2)	(232,2)	(277,1)	(237,2)	(231,1)	(241,1)	(170,1)	
L1D -236>	(227,1)	(2,1)	(253,1)	(226,2)	(249,1)	(257,1)	(233,3)	(244,3)	(1,3)	(245,2)	(247,1)	(231,4)	(235,3)	(230,4)	(222,1)	(-67,1)	
L1D -235>	(229,3)	(1,6)	(240,4)	(238,1)	(225,1)	(231,1)	(230,2)	(235,4)	(239,1)	(246,1)	(3,1)	(237,3)	(233,1)	(226,1)	(242,2)	(-2,1)	
L1D -234>	(224,1)	(232,10)	(219,1)	(236,1)	(247,2)	(237,1)	(241,1)	(58,1)	(240,1)	(228,2)	(3,4)	(226,3)	(231,3)	(233,2)	(255,1)	(225,2)	
L1D -233>	(250,2)	(152,2)	(1,13)	(2,2)	(100,1)	(226,4)	(36,1)	(216,2)	(239,1)	(370,1)	(227,2)	(238,3)	(116,1)	(255,1)	(228,1)	(243,1)	
L1D -232>	(235,1)	(229,3)	(234,1)	(-32,1)	(227,4)	(247,1)	(148,1)	(3,2)	(222,3)	(221,1)	(1,4)	(230,2)	(225,2)	(232,5)	(246,2)	(209,1)	
L1D -231>	(1,15)	(231,4)	(232,1)	(162,1)	(233,3)	(236,3)	(237,2)	(235,2)	(239,3)	(241,3)	(234,2)	(227,4)	(218,2)	(223,1)	(240,2)	(230,1)	
L1D -230>	(233,3)	(229,4)	(221,1)	(226,2)	(246,1)	(251,1)	(234,2)	(-104,1)	(211,1)	(3,1)	(240,1)	(1,3)	(215,1)	(228,3)	(231,1)	(242,1)	
L1D -229>	(214,2)	(1,12)	(231,6)	(236,1)	(230,2)	(221,2)	(233,1)	(241,2)	(235,2)	(220,2)	(216,1)	(223,2)	(9,1)	(102,1)	(18,1)	(226,1)	
L1D -228>	(234,1)	(244,1)	(228,4)	(226,3)	(224,3)	(223,1)	(229,3)	(198,1)	(39,1)	(217,1)	(236,1)	(243,1)	(263,1)	(290,1)	(3,10)	(194,1)	
L1D -227>	(1,9)	(219,2)	(217,2)	(232,1)	(3,3)	(244,1)	(231,4)	(-166,1)	(233,2)	(212,2)	(228,5)	(227,3)	(223,2)	(-42,1)	(214,2)	(247,1)	
L1D -226>	(1,6)	(232,2)	(3,7)	(225,5)	(221,2)	(230,1)	(223,1)	(215,1)	(-2,2)	(244,1)	(231,1)	(218,1)	(217,1)	(227,2)	(106,1)	(160,1)	
L1D -225>	(225,4)	(211,2)	(227,4)	(1,10)	(222,2)	(228,2)	(184,1)	(232,4)	(234,2)	(210,2)	(219,5)	(224,1)	(217,4)	(226,2)	(223,2)	(-2,3)	
L1D -224>	(219,2)	(223,1)	(231,2)	(226,2)	(1,4)	(-17,1)	(224,4)	(235,2)	(227,2)	(195,1)	(229,2)	(222,1)	(-60,1)	(220,2)	(244,1)	(225,3)	
L1D -223>	(236,3)	(232,2)	(219,2)	(213,1)	(1,10)	(221,3)	(-2,2)	(226,2)	(222,2)	(176,1)	(227,2)	(212,1)	(217,1)	(216,4)	(231,1)	(211,1)	
L1D -222>	(232,2)	(1,5)	(-1,1)	(212,1)	(208,1)	(222,4)	(224,3)	(214,2)	(218,4)	(206,1)	(223,2)	(225,3)	(226,2)	(219,2)	(230,2)	(220,1)	
L1D -221>	(226,3)	(224,1)	(219,2)	(230,2)	(1,10)	(225,3)	(130,1)	(236,2)	(218,2)	(211,3)	(212,2)	(301,1)	(210,2)	(223,1)	(239,1)	(203,1)	
L1D -220>	(227,1)	(46,1)	(-1,1)	(217,1)	(218,3)	(221,1)	(1,8)	(211,1)	(214,2)	(234,1)	(228,1)	(239,1)	(226,2)	(168,1)	(208,1)	(215,1)	
L1D -219>	(1,13)	(216,5)	(209,1)	(223,4)	(219,4)	(240,1)	(210,2)	(211,2)	(212,1)	(189,1)	(215,2)	(-56,1)	(227,1)	(222,1)	(228,1)	(231,2)	
L1D -218>	(268,1)	(-2,1)	(207,3)	(220,1)	(1,10)	(209,1)	(224,3)	(228,1)	(217,5)	(211,1)	(152,1)	(210,2)	(229,1)	(225,3)	(204,1)	(216,3)	
L1D -217>	(3,4)	(219,5)	(228,1)	(214,2)	(223,2)	(207,1)	(1,26)	(259,1)	(208,4)	(236,1)	(201,1)	(203,1)	(231,3)	(220,1)	(218,1)	(232,1)	
L1D -216>	(4,4)	(2,1)	(212,2)	(224,3)	(1,15)	(213,2)	(6,4)	(228,1)	(221,3)	(210,1)	(220,1)	(222,1)	(8,1)	(218,1)	(173,1)	(216,3)	
L1D -215>	(219,4)	(224,3)	(206,1)	(213,3)	(216,3)	(1,15)	(-1,1)	(214,1)	(255,1)	(357,1)	(232,1)	(210,1)	(203,1)	(218,3)	(215,2)	(-43,1)	
L1D -214>	(1,6)	(-2,6)	(208,1)	(216,1)	(223,2)	(210,2)	(204,3)	(-112,1)	(226,3)	(218,1)	(224,2)	(212,5)	(235,1)	(211,1)	(203,1)	(219,2)	
L1D -213>	(1,13)	(217,2)	(-2,2)	(219,1)	(208,3)	(220,3)	(3,2)	(212,3)	(332,1)	(150,1)	(210,2)	(-122,1)	(-86,1)	(206,2)	(222,2)	(213,4)	
L1D -212>	(4,2)	(1,4)	(210,4)	(201,2)	(-62,1)	(220,4)	(221,2)	(217,3)	(205,2)	(214,3)	(208,1)	(211,3)	(-74,1)	(206,3)	(100,1)	(200,2)	
L1D -211>	(211,4)	(-2,1)	(-138,1)	(1,12)	(281,1)	(198,1)	(412,1)	(216,3)	(209,1)	(192,1)	(207,2)	(206,2)	(205,1)	(238,1)	(213,2)	(212,1)	
L1D -210>	(4,2)	(192,1)	(219,1)	(201,2)	(205,2)	(207,2)	(210,3)	(211,5)	(-128,1)	(1,13)	(224,1)	(206,3)	(8,1)	(194,2)	(226,1)	(-2,1)	
L1D -209>	(4,2)	(204,1)	(1,16)	(207,1)	(194,1)	(210,1)	(217,1)	(-1,1)	(74,1)	(206,5)	(205,2)	(198,1)	(219,1)	(6,1)	(215,2)	(214,2)	
L1D -208>	(208,4)	(204,2)	(1,58)	(213,2)	(197,3)	(227,1)	(60,2)	(209,3)	(205,2)	(31,1)	(203,3)	(207,5)	(250,1)	(201,2)	(265,1)	(217,2)	
L1D -207>	(236,1)	(206,4)	(158,1)	(215,2)	(218,3)	(216,2)	(204,2)	(210,1)	(211,3)	(5,12)	(1,11)	(203,3)	(209,4)	(-96,1)	(214,2)	(276,1)	
L1D -206>	(204,2)	(196,1)	(218,1)	(210,2)	(226,2)	(190,1)	(1,9)	(206,2)	(207,3)	(84,1)	(203,1)	(211,3)	(217,1)	(2,2)	(199,2)	(186,1)	
L1D -205>	(1,22)	(203,2)	(210,3)	(182,1)	(3,9)	(201,3)	(216,2)	(171,1)	(326,1)	(214,2)	(206,7)	(-74,1)	(222,2)	(-129,1)	(225,1)	(212,4)	
L1D -204>	(204,3)	(3,2)	(213,1)	(208,3)	(195,1)	(198,1)	(186,1)	(182,1)	(207,5)	(221,1)	(2,6)	(201,2)	(191,1)	(202,3)	(210,1)	(206,2)	
L1D -203>	(203,3)	(1,8)	(211,2)	(198,2)	(193,2)	(172,1)	(188,1)	(205,1)	(201,1)	(204,1)	(195,2)	(216,1)	(191,1)	(206,2)	(68,1)	(214,2)	
L1D -202>	(205,3)	(198,3)	(194,3)	(2,4)	(199,1)	(200,5)	(217,3)	(1,19)	(193,2)	(208,1)	(215,1)	(204,2)	(228,1)	(216,2)	(222,1)	(50,1)	
L1D -201>	(334,1)	(206,1)	(191,2)	(1,16)	(199,2)	(240,1)	(146,1)	(200,2)	(208,1)	(213,1)	(183,1)	(282,1)	(255,1)	(-25,1)	(195,3)	(188,1)	
L1D -200>	(199,1)	(198,3)	(277,1)	(205,2)	(203,4)	(3,6)	(212,1)	(188,3)	(1,5)	(184,1)	(180,1)	(32,1)	(222,1)	(207,3)	(-40,1)	(202,3)	
L1D -199>	(192,1)	(190,2)	(216,1)	(207,4)	(201,1)	(202,2)	(210,1)	(185,1)	(324,1)	(1,13)	(-29,1)	(197,2)	(215,1)	(203,3)	(3,7)	(33,1)	
L1D -198>	(196,3)	(4,2)	(194,3)	(380,1)	(214,1)	(211,2)	(205,2)	(1,4)	(198,1)	(203,2)	(188,1)	(206,1)	(200,2)	(201,3)	(204,2)	(190,1)	
L1D -197>	(168,1)	(193,3)	(1,18)	(192,1)	(202,2)	(200,4)	(190,1)	(203,3)	(183,1)	(-6,1)	(196,3)	(210,1)	(191,3)	(2,1)	(199,1)	(187,3)	
L1D -196>	(189,1)	(193,1)	(199,4)	(187,1)	(191,2)	(1,10)	(210,1)	(202,3)	(192,3)	(203,1)	(195,2)	(201,2)	(180,1)	(208,2)	(200,1)	(198,1)	
L1D -195>	(1,12)	(187,1)	(160,1)	(199,2)	(191,2)	(114,1)	(197,4)	(189,3)	(19,2)	(194,5)	(176,1)	(192,3)	(207,4)	(82,1)	(33,2)	(198,3)	
L1D -194>	(189,2)	(1,18)	(187,1)	(179,1)	(202,3)	(191,2)	(17,2)	(177,1)	(142,1)	(209,1)	(185,2)	(198,1)	(33,2)	(194,1)	(110,1)	(195,2)	
L1D -193>	(1,19)	(195,4)	(182,1)	(177,1)	(178,2)	(-81,1)	(208,1)	(184,2)	(196,2)	(199,1)	(206,1)	(3,1)	(203,2)	(189,1)	(193,5)	(198,1)	
L1D -192>	(196,3)	(201,2)	(206,2)	(184,1)	(159,1)	(191,1)	(190,3)	(197,1)	(1,27)	(207,2)	(176,2)	(181,1)	(215,1)	(194,1)	(238,1)	(195,1)	
L1D -191>	(182,2)	(198,2)	(199,2)	(94,1)	(197,3)	(259,1)	(142,1)	(202,1)	(189,3)	(1,15)	(177,1)	(192,2)	(214,1)	(183,2)	(194,4)	(207,2)	
L1D -190>	(181,3)	(186,3)	(184,3)	(178,2)	(182,3)	(204,1)	(188,2)	(179,1)	(26,1)	(177,1)	(176,1)	(189,2)	(190,2)	(183,2)	(1,3)	(187,1)	
L1D -189>	(186,5)	(1,6)	(189,3)	(190,3)	(210,1)	(254,1)	(187,2)	(195,3)	(180,3)	(6,4)	(181,3)	(248,3)	(2,1)	(200,1)	(178,1)	(185,2)	
L1D -188>	(183,2)	(189,3)	(-38,1)	(178,3)	(203,1)	(195,2)	(187,2)	(186,2)	(168,1)	(200,4)	(1,5)	(135,1)	(190,1)	(192,4)	(308,1)	(191,3)	
L1D -187>	(1,16)	(182,3)	(5,2)	(6,1)	(194,1)	(-2,2)	(193,2)	(200,2)	(2,1)	(119,1)	(177,1)	(191,2)	(192,2)	(204,1)	(180,1)	(190,4)	
L1D -186>	(1,12)	(180,1)	(186,4)	(195,2)	(183,4)	(199,1)	(193,1)	(2,1)	(176,1)	(218,1)	(179,2)	(190,1)	(204,2)	(181,2)	(3,1)	(198,1)	
L1D -185>	(183,3)	(181,2)	(184,1)	(270,1)	(188,1)	(1,12)	(198,1)	(190,3)	(194,3)	(-97,1)	(297,1)	(170,2)	(179,3)	(186,1)	(239,1)	(185,1)	
L1D -184>	(180,2)	(1,8)	(191,2)	(2,2)	(188,1)	(186,2)	(183,4)	(-122,1)	(179,1)	(112,1)	(270,1)	(-2,2)	(176,1)	(32,1)	(192,1)	(-78,1)	
L1D -183>	(1,13)	(177,2)	(192,3)	(2,6)	(171,2)	(188,1)	(196,2)	(169,1)	(179,3)	(185,4)	(175,1)	(173,2)	(176,1)	(-186,1)	(186,2)	(198,1)	
L1D -182>	(186,4)	(175,3)	(2,2)	(178,5)	(1,13)	(193,1)	(172,2)	(162,1)	(38,1)	(191,1)	(188,3)	(195,1)	(173,2)	(181,2)	(187,2)	(170,2)	
L1D -181>	(1,16)	(182,2)	(181,3)	(-2,2)	(183,4)	(190,2)	(3,5)	(187,6)	(-235,1)	(178,2)	(184,4)	(189,1)	(175,2)	(142,2)	(172,3)	(167,2)	
L1D -180>	(8,4)	(179,2)	(173,1)	(177,2)	(155,1)	(174,3)	(1,12)	(186,4)	(168,2)	(184,2)	(190,1)	(176,1)	(172,3)	(170,1)	(129,1)	(171,1)	
L1D -179>	(172,1)	(163,2)	(195,1)	(1,32)	(190,1)	(196,1)	(171,2)	(177,1)	(179,3)	(176,1)	(166,1)	(-12,1)	(2,1)	(192,2)	(175,1)	(-146,1)	
L1D -178>	(-2,2)	(175,2)	(172,2)	(185,1)	(168,2)	(1,10)	(174,3)	(163,1)	(165,1)	(179,2)	(188,1)	(177,1)	(187,1)	(169,3)	(186,1)	(-131,1)	
L1D -177>	(20,2)	(1,17)	(24,2)	(169,3)	(163,2)	(175,1)	(179,1)	(178,3)	(171,2)	(275,1)	(181,1)	(190,1)	(162,2)	(3,14)	(176,2)	(183,3)	
L1D -176>	(280,1)	(167,1)	(176,3)	(178,5)	(168,1)	(174,6)	(184,2)	(177,1)	(172,1)	(170,2)	(183,1)	(187,1)	(3,1)	(48,1)	(1,7)	(173,1)	
L1D -175>	(178,3)	(1,8)	(176,3)	(173,1)	(190,3)	(160,1)	(181,2)	(175,3)	(174,1)	(179,2)	(-2,2)	(165,1)	(111,1)	(163,1)	(194,1)	(139,1)	
L1D -174>	(189,1)	(182,3)	(176,2)	(186,1)	(177,3)	(1,6)	(74,1)	(229,1)	(167,1)	(170,2)	(179,3)	(175,2)	(164,1)	(203,1)	(165,1)	(263,1)	
L1D -173>	(177,2)	(166,2)	(175,1)	(174,4)	(-82,1)	(1,10)	(176,2)	(72,1)	(3,1)	(145,1)	(-180,1)	(180,2)	(172,6)	(179,1)	(159,1)	(167,3)	
L1D -172>	(178,3)	(7,4)	(175,2)	(168,2)	(171,2)	(104,1)	(181,3)	(-1,1)	(184,2)	(165,1)	(180,2)	(429,1)	(167,2)	(174,3)	(160,1)	(1,5)	
L1D -171>	(176,2)	(173,2)	(26,4)	(1,25)	(164,1)	(175,3)	(178,1)	(3,5)	(188,1)	(179,4)	(184,2)	(180,2)	(254,1)	(174,2)	(70,1)	(186,1)	
L1D -170>	(1,9)	(165,5)	(4,2)	(175,1)	(94,2)	(-201,1)	(12,1)	(173,1)	(179,3)	(36,1)	(172,3)	(183,2)	(163,2)	(241,1)	(171,2)	(204,1)	
L1D -169>	(178,1)	(1,22)	(166,3)	(175,3)	(162,2)	(171,1)	(202,1)	(189,1)	(174,5)	(-43,1)	(161,1)	(170,2)	(176,1)	(3,4)	(274,1)	(169,3)	
L1D -168>	(169,2)	(4,2)	(172,2)	(167,2)	(78,1)	(175,1)	(170,1)	(182,4)	(40,1)	(1,5)	(-153,1)	(226,1)	(173,3)	(2,1)	(12,2)	(176,1)	
L1D -167>	(1,13)	(170,3)	(298,1)	(168,3)	(202,1)	(153,1)	(204,1)	(178,1)	(161,2)	(181,1)	(183,1)	(176,2)	(160,1)	(165,3)	(109,1)	(162,1)	
L1D -166>	(170,2)	(175,2)	(139,1)	(1,9)	(172,2)	(174,2)	(164,2)	(3,1)	(-2,1)	(177,1)	(183,1)	(173,3)	(110,1)	(179,1)	(176,1)	(190,1)	
L1D -165>	(162,4)	(1,10)	(164,2)	(13,2)	(7,2)	(135,1)	(3,12)	(171,4)	(161,2)	(6,2)	(167,2)	(186,1)	(174,1)	(168,1)	(175,1)	(156,1)	
L1D -164>	(177,2)	(1,8)	(157,1)	(3,2)	(172,1)	(272,1)	(163,3)	(165,1)	(167,1)	(80,1)	(-54,1)	(155,1)	(-2,1)	(148,1)	(184,2)	(160,1)	
L1D -163>	(1,13)	(168,4)	(-32,1)	(184,2)	(159,1)	(3,5)	(169,4)	(164,2)	(187,1)	(161,3)	(373,1)	(202,1)	(12,2)	(173,2)	(157,1)	(166,1)	
L1D -162>	(1,7)	(160,1)	(194,1)	(170,1)	(3,10)	(155,1)	(164,2)	(182,1)	(11,2)	(178,1)	(176,2)	(180,1)	(184,1)	(166,1)	(40,1)	(175,1)	
L1D -161>	(159,1)	(1,16)	(172,3)	(168,2)	(399,1)	(169,1)	(178,1)	(170,4)	(166,3)	(165,1)	(-177,1)	(157,3)	(302,1)	(18,1)	(158,1)	(160,2)	
L1D -160>	(22,4)	(3,5)	(1,8)	(171,1)	(68,1)	(136,1)	(8,1)	(16,1)	(172,2)	(169,1)	(-2,4)	(166,1)	(179,1)	(158,2)	(214,1)	(165,2)	
L1D -159>	(1,21)	(124,1)	(174,1)	(179,1)	(173,2)	(4,1)	(168,2)	(150,1)	(154,1)	(368,1)	(3,2)	(158,1)	(2,2)	(87,1)	(98,1)	(68,1)	
L1D -158>	(3,2)	(318,1)	(157,1)	(160,1)	(168,2)	(162,2)	(177,1)	(296,1)	(1,4)	(158,1)	(-22,1)	(174,1)	(165,1)	(-138,1)	(179,1)	(149,1)	
L1D -157>	(1,10)	(24,1)	(-52,1)	(165,1)	(172,1)	(27,1)	(178,2)	(-2,11)	(156,1)	(176,1)	(171,1)	(206,1)	(-18,1)	(168,1)	(182,1)	(162,1)	
L1D -156>	(28,1)	(1,10)	(158,1)	(12,3)	(116,1)	(166,1)	(3,7)	(5,1)	(151,1)	(163,1)	(165,1)	(6,1)	(179,1)	(208,1)	(132,1)	(2,1)	
L1D -155>	(1,21)	(168,1)	(162,1)	(15,1)	(159,1)	(164,2)	(156,2)	(2,2)	(3,2)	(-71,1)	(54,1)	(149,1)	(380,1)	(148,1)	(100,1)	(194,1)	
L1D -154>	(1,6)	(-2,2)	(157,2)	(196,1)	(171,1)	(159,2)	(66,1)	(3,3)	(161,1)	(6,1)	(24,1)	(12,1)	(184,1)	(106,1)	(185,1)	(231,1)	
L1D -153>	(1,17)	(114,1)	(165,1)	(109,1)	(30,1)	(157,1)	(-1,1)	(3,1)	(155,1)	(230,1)	(56,1)	(160,1)	(154,1)	(238,1)	(-198,1)	(166,1)	
L1D -152>	(1,18)	(112,1)	(84,1)	(-24,1)	(78,1)	(155,1)	(159,1)	(-95,1)	(-74,1)	(-162,1)	(1,0)	(1,0)	(1,0)	(1,0)	(1,0)	(1,0)	
L1D -151>	(165,1)	(144,1)	(1,22)	(-1,1)	(173,1)	(3,5)	(154,1)	(156,1)	(223,1)	(138,1)	(200,1)	(153,1)	(162,1)	(171,1)	(166,1)	(1,0)	
L1D -150>	(1,16)	(177,1)	(108,1)	(156,1)	(173,1)	(2,2)	(-90,1)	(-34,2)	(1,0)	(1,0)	(1,0)	(1,0)	(1,0)	(1,0)	(1,0)	(1,0)	
L1D -149>	(1,21)	(199,1)	(152,1)	(150,1)	(194,1)	(-163,1)	(285,1)	(82,1)	(2,2)	(168,1)	(163,1)	(408,1)	(1,0)	(1,0)	(1,0)	(1,0)	
L1D -148>	(147,1)	(-1,1)	(1,5)	(72,1)	(3,4)	(268,1)	(124,1)	(102,1)	(46,1)	(-140,1)	(384,1)	(-60,1)	(2,2)	(367,1)	(212,1)	(1,0)	
L1D -147>	(1,24)	(-104,1)	(201,1)	(174,1)	(9,1)	(12,4)	(6,2)	(150,1)	(-16,1)	(-78,1)	(-64,1)	(-134,1)	(0,1)	(326,1)	(3,3)	(165,1)	
L1D -146>	(194,1)	(1,8)	(32,1)	(292,1)	(1,0)	(1,0)	(1,0)	(1,0)	(1,0)	(1,0)	(1,0)	(1,0)	(1,0)	(1,0)	(1,0)	(1,0)	
L1D -145>	(1,18)	(9,1)	(-20,1)	(234,1)	(189,1)	(98,1)	(6,2)	(167,1)	(90,1)	(12,3)	(-104,1)	(-66,1)	(-54,1)	(34,1)	(-2,1)	(80,1)	
L1D -144>	(-32,1)	(1,12)	(3,4)	(156,1)	(172,1)	(4,2)	(218,1)	(-9,1)	(174,1)	(28,1)	(-191,1)	(185,1)	(130,1)	(141,1)	(32,1)	(312,1)	
L1D -143>	(310,1)	(135,1)	(1,10)	(128,1)	(96,1)	(157,1)	(28,1)	(151,1)	(3,1)	(159,1)	(-90,1)	(170,1)	(308,1)	(78,1)	(-80,1)	(252,1)	
L1D -142>	(358,1)	(279,1)	(1,3)	(108,1)	(-2,4)	(-224,1)	(3,4)	(197,1)	(76,1)	(130,1)	(1,0)	(1,0)	(1,0)	(1,0)	(1,0)	(1,0)	
L1D -141>	(170,1)	(-1,2)	(1,26)	(-24,1)	(58,1)	(124,1)	(372,1)	(90,1)	(-16,1)	(174,1)	(140,1)	(-26,2)	(-110,1)	(282,1)	(-94,1)	(98,1)	
L1D -140>	(1,8)	(8,1)	(3,2)	(27,1)	(2,2)	(-12,1)	(143,1)	(249,1)	(108,1)	(1,0)	(1,0)	(1,0)	(1,0)	(1,0)	(1,0)	(1,0)	
L1D -139>	(1,19)	(9,4)	(48,1)	(6,1)	(283,1)	(-58,1)	(186,1)	(304,1)	(96,1)	(3,3)	(219,1)	(33,1)	(253,1)	(203,1)	(300,1)	(148,1)	
L1D -138>	(1,13)	(-16,1)	(13,1)	(139,1)	(-100,1)	(108,1)	(-6,1)	(2,2)	(132,1)	(154,1)	(261,1)	(6,2)	(110,1)	(336,1)	(124,1)	(69,1)	
L1D -137>	(1,21)	(28,1)	(76,1)	(-98,1)	(-108,1)	(-252,1)	(189,1)	(-62,1)	(-8,1)	(62,1)	(164,1)	(1,0)	(1,0)	(1,0)	(1,0)	(1,0)	
L1D -136>	(100,1)	(-2,1)	(13,1)	(1,14)	(178,1)	(128,1)	(27,1)	(-112,1)	(30,1)	(3,3)	(183,1)	(198,1)	(-133,1)	(-90,1)	(-256,1)	(140,1)	
L1D -135>	(120,1)	(1,15)	(50,1)	(-34,1)	(-52,1)	(-312,1)	(2,2)	(-214,1)	(3,1)	(1,0)	(1,0)	(1,0)	(1,0)	(1,0)	(1,0)	(1,0)	
L1D -134>	(1,8)	(220,1)	(3,1)	(-18,1)	(143,1)	(0,1)	(-154,1)	(378,1)	(305,1)	(74,1)	(-160,1)	(208,1)	(1,0)	(1,0)	(1,0)	(1,0)	
L1D -133>	(1,21)	(-1,1)	(290,1)	(191,1)	(-76,1)	(156,1)	(-72,1)	(194,1)	(86,1)	(8,4)	(91,1)	(3,1)	(63,1)	(2,2)	(-8,1)	(1,0)	
L1D -132>	(2,2)	(1,8)	(-34,1)	(233,1)	(39,1)	(134,1)	(117,1)	(180,1)	(144,1)	(189,1)	(3,1)	(48,1)	(60,1)	(150,1)	(1,0)	(1,0)	
L1D -131>	(1,20)	(297,1)	(26,1)	(-98,2)	(157,1)	(132,1)	(249,1)	(196,1)	(1,0)	(1,0)	(1,0)	(1,0)	(1,0)	(1,0)	(1,0)	(1,0)	
L1D -130>	(115,1)	(-215,1)	(-28,1)	(250,1)	(105,1)	(-42,1)	(128,1)	(48,1)	(1,4)	(338,1)	(11,2)	(-186,1)	(117,1)	(6,1)	(-172,1)	(22,1)	
L1D -129>	(1,7)	(2,2)	(3,3)	(334,1)	(186,1)	(6,3)	(346,1)	(1,0)	(1,0)	(1,0)	(1,0)	(1,0)	(1,0)	(1,0)	(1,0)	(1,0)	
L1D -128>	(1,9)	(222,1)	(-62,1)	(8,2)	(122,1)	(-26,1)	(-82,1)	(100,1)	(354,1)	(1,0)	(1,0)	(1,0)	(1,0)	(1,0)	(1,0)	(1,0)	
L1D -127>	(1,16)	(-100,1)	(200,1)	(400,1)	(1,0)	(1,0)	(1,0)	(1,0)	(1,0)	(1,0)	(1,0)	(1,0)	(1,0)	(1,0)	(1,0)	(1,0)	
L1D -126>	(1,4)	(-70,1)	(-82,1)	(-109,1)	(3,1)	(140,2)	(148,1)	(-18,1)	(-106,1)	(168,1)	(188,1)	(114,1)	(96,1)	(1,0)	(1,0)	(1,0)	
L1D -125>	(1,23)	(-1,2)	(369,1)	(60,1)	(153,1)	(-250,1)	(388,1)	(228,1)	(94,1)	(1,0)	(1,0)	(1,0)	(1,0)	(1,0)	(1,0)	(1,0)	
L1D -124>	(1,11)	(10,1)	(173,1)	(162,1)	(-2,1)	(-76,1)	(168,1)	(80,1)	(1,0)	(1,0)	(1,0)	(1,0)	(1,0)	(1,0)	(1,0)	(1,0)	
L1D -123>	(-1,1)	(1,16)	(3,3)	(-130,1)	(-62,1)	(6,3)	(2,2)	(90,1)	(-186,1)	(110,1)	(-2,1)	(24,1)	(1,0)	(1,0)	(1,0)	(1,0)	
L1D -122>	(1,7)	(324,1)	(-196,1)	(198,1)	(104,1)	(344,1)	(-6,1)	(-70,1)	(1,0)	(1,0)	(1,0)	(1,0)	(1,0)	(1,0)	(1,0)	(1,0)	
L1D -121>	(-1,1)	(1,32)	(-133,1)	(262,1)	(-16,1)	(3,1)	(2,2)	(74,1)	(151,1)	(1,0)	(1,0)	(1,0)	(1,0)	(1,0)	(1,0)	(1,0)	
L1D -120>	(1,10)	(2,1)	(130,1)	(140,1)	(120,1)	(-82,1)	(54,1)	(42,1)	(50,1)	(86,1)	(1,0)	(1,0)	(1,0)	(1,0)	(1,0)	(1,0)	
L1D -119>	(44,1)	(98,1)	(1,21)	(74,1)	(140,1)	(122,1)	(246,1)	(52,1)	(42,1)	(1,0)	(1,0)	(1,0)	(1,0)	(1,0)	(1,0)	(1,0)	
L1D -118>	(3,1)	(1,15)	(-56,1)	(78,3)	(168,1)	(-189,1)	(-44,1)	(184,1)	(1,0)	(1,0)	(1,0)	(1,0)	(1,0)	(1,0)	(1,0)	(1,0)	
L1D -117>	(1,16)	(3,2)	(-28,1)	(254,1)	(228,1)	(171,1)	(69,2)	(156,1)	(166,1)	(-136,1)	(120,1)	(9,2)	(124,1)	(339,1)	(1,0)	(1,0)	
L1D -116>	(2,1)	(114,1)	(1,8)	(64,1)	(-287,1)	(170,1)	(128,1)	(34,1)	(42,1)	(0,1)	(190,1)	(44,1)	(36,1)	(1,0)	(1,0)	(1,0)	
L1D -115>	(1,27)	(-1,1)	(336,1)	(3,3)	(4,2)	(-6,1)	(184,1)	(2,2)	(-34,1)	(101,1)	(138,1)	(-244,1)	(1,0)	(1,0)	(1,0)	(1,0)	
L1D -114>	(256,1)	(1,7)	(108,1)	(286,1)	(90,1)	(2,1)	(1,0)	(1,0)	(1,0)	(1,0)	(1,0)	(1,0)	(1,0)	(1,0)	(1,0)	(1,0)	
L1D -113>	(1,20)	(2,1)	(-210,1)	(28,1)	(252,1)	(148,1)	(-110,1)	(382,1)	(215,1)	(301,1)	(1,0)	(1,0)	(1,0)	(1,0)	(1,0)	(1,0)	
L1D -112>	(-1,1)	(350,1)	(1,14)	(112,1)	(62,1)	(-6,1)	(-20,1)	(2,2)	(-58,1)	(40,1)	(-282,1)	(74,1)	(78,1)	(1,0)	(1,0)	(1,0)	
L1D -111>	(1,17)	(2,11)	(3,1)	(20,2)	(5,1)	(166,1)	(12,1)	(123,1)	(1,0)	(1,0)	(1,0)	(1,0)	(1,0)	(1,0)	(1,0)	(1,0)	
L1D -110>	(2,1)	(88,1)	(-161,1)	(100,1)	(1,10)	(64,1)	(-102,1)	(3,1)	(284,1)	(9,1)	(-148,1)	(-70,1)	(-50,1)	(4,2)	(1,0)	(1,0)	
L1D -109>	(1,28)	(0,1)	(129,1)	(-170,1)	(-194,1)	(54,1)	(2,10)	(113,1)	(228,1)	(72,1)	(243,1)	(3,2)	(68,1)	(20,1)	(86,1)	(14,1)	
L1D -108>	(5,1)	(1,9)	(2,2)	(-2,1)	(-1,1)	(46,1)	(6,2)	(3,1)	(-18,1)	(27,1)	(72,1)	(1,0)	(1,0)	(1,0)	(1,0)	(1,0)	
L1D -107>	(-1,1)	(1,20)	(10,2)	(142,1)	(41,4)	(40,2)	(-128,1)	(-318,1)	(208,1)	(320,1)	(1,0)	(1,0)	(1,0)	(1,0)	(1,0)	(1,0)	
L1D -106>	(4,8)	(1,26)	(10,1)	(9,4)	(86,1)	(33,1)	(-152,1)	(3,3)	(107,1)	(-110,1)	(140,1)	(-2,1)	(258,1)	(180,1)	(151,1)	(-163,1)	
L1D -105>	(1,13)	(-214,1)	(-1,2)	(40,1)	(389,1)	(-6,1)	(80,1)	(138,1)	(-164,1)	(90,1)	(155,1)	(3,1)	(130,1)	(282,1)	(1,0)	(1,0)	
L1D -104>	(1,12)	(3,1)	(-30,2)	(-16,1)	(131,1)	(-264,1)	(18,1)	(-277,1)	(-68,1)	(209,1)	(260,1)	(178,1)	(30,1)	(1,0)	(1,0)	(1,0)	
L1D -103>	(1,33)	(187,1)	(66,1)	(3,1)	(130,1)	(-198,1)	(-118,1)	(10,1)	(228,1)	(2,2)	(-224,1)	(-86,1)	(89,1)	(178,1)	(150,1)	(1,0)	
L1D -102>	(1,11)	(140,1)	(112,1)	(102,1)	(97,1)	(-18,1)	(130,1)	(103,1)	(-88,1)	(-2,1)	(9,1)	(3,1)	(1,0)	(1,0)	(1,0)	(1,0)	
L1D -101>	(1,15)	(160,1)	(348,1)	(140,1)	(-94,1)	(146,1)	(98,1)	(294,1)	(1,0)	(1,0)	(1,0)	(1,0)	(1,0)	(1,0)	(1,0)	(1,0)	
L1D -100>	(1,11)	(-2,2)	(-48,1)	(174,1)	(6,1)	(98,1)	(-334,1)	(-68,1)	(142,1)	(112,1)	(1,0)	(1,0)	(1,0)	(1,0)	(1,0)	(1,0)	
L1D -99>	(-60,1)	(1,14)	(-226,1)	(320,2)	(2,1)	(166,1)	(-176,1)	(-10,1)	(145,1)	(70,1)	(-220,1)	(1,0)	(1,0)	(1,0)	(1,0)	(1,0)	
L1D -98>	(5,2)	(2,1)	(-16,1)	(1,8)	(32,1)	(-98,1)	(-90,1)	(30,1)	(162,1)	(121,1)	(174,1)	(-206,1)	(128,1)	(-1,1)	(60,1)	(62,1)	
L1D -97>	(56,2)	(1,20)	(8,4)	(5,2)	(6,4)	(136,1)	(71,1)	(-242,1)	(12,2)	(80,1)	(-12,1)	(92,1)	(374,1)	(3,1)	(86,1)	(112,1)	
L1D -96>	(1,3)	(140,1)	(104,1)	(-109,1)	(-176,1)	(28,1)	(56,1)	(82,1)	(16,1)	(-40,1)	(24,1)	(6,1)	(-106,1)	(118,1)	(1,0)	(1,0)	
L1D -95>	(1,13)	(-1,1)	(48,2)	(58,1)	(112,1)	(62,1)	(208,1)	(-124,1)	(90,1)	(194,1)	(273,1)	(230,1)	(-128,1)	(1,0)	(1,0)	(1,0)	
L1D -94>	(1,10)	(56,1)	(150,1)	(-80,1)	(-210,1)	(-250,1)	(20,1)	(146,1)	(178,1)	(366,1)	(100,1)	(168,1)	(-307,1)	(72,1)	(1,0)	(1,0)	
L1D -93>	(1,23)	(-96,1)	(250,1)	(-130,1)	(258,1)	(154,1)	(-28,1)	(280,1)	(1,0)	(1,0)	(1,0)	(1,0)	(1,0)	(1,0)	(1,0)	(1,0)	
L1D -92>	(1,16)	(-198,1)	(-1,1)	(1,0)	(1,0)	(1,0)	(1,0)	(1,0)	(1,0)	(1,0)	(1,0)	(1,0)	(1,0)	(1,0)	(1,0)	(1,0)	
L1D -91>	(1,23)	(-194,1)	(3,4)	(94,1)	(1,0)	(1,0)	(1,0)	(1,0)	(1,0)	(1,0)	(1,0)	(1,0)	(1,0)	(1,0)	(1,0)	(1,0)	
L1D -90>	(0,127)	(90,30)	(304,1)	(1,5)	(139,0)	(-188,0)	(92,0)	(74,1)	(77,0)	(284,0)	(110,0)	(264,0)	(-14,0)	(-74,0)	(-22,0)	(1,0)	
L1D -89>	(1,19)	(336,1)	(134,1)	(72,1)	(200,1)	(-230,1)	(-178,1)	(-18,1)	(-116,1)	(10,1)	(-26,1)	(1,0)	(1,0)	(1,0)	(1,0)	(1,0)	
L1D -88>	(1,7)	(2,1)	(134,1)	(-283,1)	(384,1)	(-46,1)	(110,1)	(359,1)	(204,1)	(-193,1)	(212,1)	(-30,1)	(1,0)	(1,0)	(1,0)	(1,0)	
L1D -87>	(1,17)	(2,3)	(38,2)	(106,1)	(22,1)	(-88,1)	(70,1)	(168,1)	(108,1)	(1,0)	(1,0)	(1,0)	(1,0)	(1,0)	(1,0)	(1,0)	
L1D -86>	(1,9)	(58,1)	(-168,1)	(167,1)	(-38,1)	(208,1)	(74,1)	(44,1)	(67,1)	(1,0)	(1,0)	(1,0)	(1,0)	(1,0)	(1,0)	(1,0)	
L1D -85>	(1,14)	(-257,1)	(13,2)	(-20,1)	(3,7)	(120,1)	(272,1)	(6,2)	(-40,1)	(56,1)	(134,1)	(1,0)	(1,0)	(1,0)	(1,0)	(1,0)	
L1D -84>	(1,3)	(-185,1)	(-64,1)	(232,1)	(16,1)	(-243,1)	(0,1)	(124,1)	(3,2)	(1,0)	(1,0)	(1,0)	(1,0)	(1,0)	(1,0)	(1,0)	
L1D -83>	(1,21)	(90,1)	(116,1)	(-310,1)	(238,1)	(-166,1)	(12,1)	(95,1)	(70,1)	(-11,1)	(74,1)	(1,0)	(1,0)	(1,0)	(1,0)	(1,0)	
L1D -82>	(-238,1)	(-67,1)	(1,10)	(120,1)	(-6,1)	(317,1)	(50,1)	(20,1)	(94,1)	(318,1)	(60,1)	(-36,1)	(42,1)	(-264,1)	(3,1)	(-191,1)	
L1D -81>	(1,20)	(-1,1)	(-58,1)	(80,1)	(142,1)	(110,1)	(164,2)	(12,1)	(-84,1)	(262,1)	(3,1)	(293,1)	(50,1)	(6,1)	(1,0)	(1,0)	
L1D -80>	(1,6)	(2,2)	(84,1)	(-216,1)	(3,1)	(138,1)	(-80,1)	(306,1)	(-226,1)	(154,1)	(34,1)	(206,1)	(182,1)	(130,1)	(98,1)	(88,1)	
L1D -79>	(1,19)	(-16,1)	(-2,3)	(-52,1)	(-134,1)	(-132,1)	(-28,1)	(-8,1)	(354,1)	(52,1)	(18,1)	(3,1)	(-80,1)	(100,1)	(30,1)	(1,0)	
L1D -78>	(259,1)	(160,1)	(1,7)	(-76,1)	(3,1)	(-80,1)	(100,1)	(12,1)	(-18,1)	(178,1)	(267,1)	(1,0)	(1,0)	(1,0)	(1,0)	(1,0)	
L1D -77>	(1,15)	(-1,2)	(-68,1)	(110,1)	(2,7)	(-308,1)	(300,1)	(326,1)	(-18,1)	(1,0)	(1,0)	(1,0)	(1,0)	(1,0)	(1,0)	(1,0)	
L1D -76>	(72,11)	(1,9)	(96,1)	(286,1)	(3,1)	(260,1)	(12,2)	(9,1)	(-244,1)	(1,0)	(1,0)	(1,0)	(1,0)	(1,0)	(1,0)	(1,0)	
L1D -75>	(2,58)	(73,9)	(1,26)	(66,35)	(76,56)	(180,1)	(3,4)	(108,1)	(110,1)	(-36,1)	(74,2)	(114,1)	(1,0)	(1,0)	(1,0)	(1,0)	
L1D -74>	(70,68)	(42,0)	(72,0)	(71,1)	(96,0)	(1,0)	(1,0)	(1,0)	(1,0)	(1,0)	(1,0)	(1,0)	(1,0)	(1,0)	(1,0)	(1,0)	
L1D -73>	(66,5)	(330,1)	(71,15)	(1,20)	(-2,6)	(141,1)	(64,50)	(72,28)	(74,51)	(108,1)	(3,1)	(46,1)	(-12,1)	(1,0)	(1,0)	(1,0)	
L1D -72>	(70,66)	(134,0)	(10,0)	(2,0)	(0,0)	(-254,0)	(1,2)	(3,0)	(1,0)	(1,0)	(1,0)	(1,0)	(1,0)	(1,0)	(1,0)	(1,0)	
L1D -71>	(-2,42)	(64,55)	(74,6)	(128,1)	(75,27)	(72,37)	(70,55)	(1,28)	(92,1)	(-1,1)	(-245,1)	(143,1)	(69,10)	(-196,1)	(-68,1)	(199,1)	
L1D -70>	(-113,1)	(-2,0)	(69,117)	(66,0)	(73,0)	(1,0)	(1,0)	(1,0)	(1,0)	(1,0)	(1,0)	(1,0)	(1,0)	(1,0)	(1,0)	(1,0)	
L1D -69>	(-270,0)	(73,101)	(74,2)	(64,24)	(1,0)	(1,0)	(1,0)	(1,0)	(1,0)	(1,0)	(1,0)	(1,0)	(1,0)	(1,0)	(1,0)	(1,0)	
L1D -68>	(71,12)	(-2,17)	(54,1)	(260,1)	(74,3)	(72,17)	(1,13)	(97,1)	(-68,1)	(-139,1)	(-292,1)	(-1,1)	(-189,1)	(18,1)	(146,1)	(47,1)	
L1D -67>	(1,21)	(9,1)	(203,1)	(18,1)	(-240,1)	(-36,1)	(283,1)	(150,1)	(184,1)	(-81,1)	(12,1)	(210,1)	(3,2)	(-280,1)	(80,1)	(154,1)	
L1D -66>	(76,9)	(83,1)	(-154,1)	(78,1)	(1,9)	(312,1)	(-56,1)	(3,2)	(-1,1)	(174,1)	(-20,1)	(20,1)	(-325,1)	(304,1)	(92,1)	(1,0)	
L1D -65>	(1,18)	(222,1)	(40,1)	(108,1)	(-12,1)	(-22,1)	(-1,1)	(-82,1)	(160,1)	(-26,1)	(30,1)	(287,1)	(1,0)	(1,0)	(1,0)	(1,0)	
L1D -64>	(71,1)	(74,119)	(12,0)	(70,1)	(-150,0)	(-325,0)	(1,0)	(1,0)	(1,0)	(1,0)	(1,0)	(1,0)	(1,0)	(1,0)	(1,0)	(1,0)	
L1D -63>	(1,25)	(-34,1)	(-1,1)	(136,1)	(360,1)	(-346,1)	(-202,1)	(-8,1)	(-170,1)	(20,1)	(-40,1)	(-196,1)	(313,1)	(216,1)	(-116,1)	(1,0)	
L1D -62>	(1,8)	(57,1)	(68,1)	(210,1)	(48,2)	(116,1)	(-1,2)	(64,1)	(26,1)	(-18,1)	(2,2)	(6,1)	(-188,1)	(24,1)	(-146,1)	(220,1)	
L1D -61>	(-202,1)	(1,17)	(-184,1)	(-60,1)	(24,2)	(10,1)	(246,1)	(-34,1)	(-194,1)	(86,1)	(-2,1)	(-167,1)	(-22,1)	(1,0)	(1,0)	(1,0)	
L1D -60>	(-1,1)	(-42,2)	(1,12)	(264,1)	(-257,1)	(-44,1)	(4,1)	(-24,1)	(-106,1)	(-36,1)	(42,1)	(88,1)	(48,1)	(1,0)	(1,0)	(1,0)	
L1D -59>	(-1,1)	(1,22)	(-264,1)	(-38,1)	(368,1)	(150,1)	(3,1)	(-186,1)	(1,0)	(1,0)	(1,0)	(1,0)	(1,0)	(1,0)	(1,0)	(1,0)	
L1D -58>	(-250,1)	(1,10)	(-110,1)	(3,6)	(127,1)	(-282,1)	(-36,1)	(262,1)	(-86,1)	(32,1)	(204,1)	(26,1)	(358,1)	(82,1)	(109,1)	(-158,1)	
L1D -57>	(1,20)	(354,1)	(142,1)	(-22,1)	(3,2)	(74,1)	(-169,1)	(8,1)	(63,1)	(1,0)	(1,0)	(1,0)	(1,0)	(1,0)	(1,0)	(1,0)	
L1D -56>	(100,1)	(78,1)	(1,9)	(58,1)	(-134,1)	(26,1)	(123,1)	(-38,1)	(-10,1)	(-34,1)	(-346,1)	(-12,1)	(18,1)	(1,0)	(1,0)	(1,0)	
L1D -55>	(1,17)	(3,2)	(-1,1)	(-2,3)	(-266,1)	(-56,1)	(2,2)	(-26,1)	(5,1)	(92,1)	(-90,1)	(388,1)	(120,1)	(-152,1)	(28,1)	(-30,1)	
L1D -54>	(1,6)	(12,2)	(322,1)	(176,1)	(280,1)	(-120,1)	(-194,1)	(-260,1)	(14,1)	(122,1)	(106,1)	(79,1)	(5,1)	(34,1)	(1,0)	(1,0)	
L1D -53>	(1,15)	(-86,1)	(-287,1)	(-156,1)	(-58,1)	(-26,1)	(40,1)	(-88,1)	(-34,1)	(-6,1)	(-138,1)	(88,1)	(92,1)	(-18,1)	(1,0)	(1,0)	
L1D -52>	(68,95)	(77,124)	(1,12)	(64,3)	(-132,1)	(166,1)	(30,1)	(44,1)	(3,3)	(-2,2)	(24,1)	(245,1)	(-230,1)	(-106,1)	(48,1)	(46,1)	
L1D -51>	(1,29)	(-80,1)	(-126,1)	(22,1)	(152,1)	(-106,1)	(-206,1)	(24,1)	(-60,1)	(-84,1)	(230,1)	(1,0)	(1,0)	(1,0)	(1,0)	(1,0)	
L1D -50>	(1,6)	(-206,1)	(8,1)	(-1,2)	(-98,1)	(-280,1)	(-16,1)	(70,1)	(1,0)	(1,0)	(1,0)	(1,0)	(1,0)	(1,0)	(1,0)	(1,0)	
L1D -49>	(1,16)	(-90,1)	(-1,1)	(-160,1)	(14,1)	(3,2)	(272,1)	(2,4)	(38,1)	(158,1)	(-34,1)	(-62,1)	(-56,1)	(1,0)	(1,0)	(1,0)	
L1D -48>	(16,74)	(26,4)	(9,78)	(-200,1)	(-28,0)	(31,3)	(1,2)	(3,3)	(-32,0)	(-24,0)	(-98,0)	(82,0)	(-194,0)	(-6,0)	(298,0)	(1,0)	
L1D -47>	(1,17)	(7,3)	(38,1)	(66,1)	(18,5)	(20,3)	(15,3)	(-44,1)	(-46,1)	(1,0)	(1,0)	(1,0)	(1,0)	(1,0)	(1,0)	(1,0)	
L1D -46>	(34,74)	(8,0)	(-2,0)	(14,0)	(16,0)	(1,0)	(1,0)	(1,0)	(1,0)	(1,0)	(1,0)	(1,0)	(1,0)	(1,0)	(1,0)	(1,0)	
L1D -45>	(1,21)	(-1,1)	(231,1)	(-140,1)	(40,1)	(160,1)	(-18,1)	(128,1)	(27,1)	(94,1)	(-236,1)	(196,1)	(349,1)	(9,1)	(-26,1)	(1,0)	
L1D -44>	(-4,1)	(-1,4)	(-24,1)	(106,1)	(50,1)	(1,5)	(-200,1)	(40,1)	(0,1)	(39,2)	(4,1)	(2,1)	(-40,1)	(-319,1)	(160,1)	(-78,1)	
L1D -43>	(1,66)	(-8,0)	(150,0)	(1,0)	(1,0)	(1,0)	(1,0)	(1,0)	(1,0)	(1,0)	(1,0)	(1,0)	(1,0)	(1,0)	(1,0)	(1,0)	
L1D -42>	(3,39)	(33,78)	(1,5)	(-1,0)	(6,0)	(110,0)	(-208,0)	(1,0)	(1,0)	(1,0)	(1,0)	(1,0)	(1,0)	(1,0)	(1,0)	(1,0)	
L1D -41>	(1,3)	(3,0)	(2,0)	(9,64)	(-198,0)	(180,0)	(16,0)	(1,0)	(1,0)	(1,0)	(1,0)	(1,0)	(1,0)	(1,0)	(1,0)	(1,0)	
L1D -40>	(3,96)	(16,0)	(17,0)	(-1,0)	(1,0)	(1,0)	(1,0)	(1,0)	(1,0)	(1,0)	(1,0)	(1,0)	(1,0)	(1,0)	(1,0)	(1,0)	
L1D -39>	(30,37)	(-3,3)	(40,74)	(3,5)	(-1,0)	(0,0)	(32,0)	(9,87)	(27,53)	(-9,1)	(7,2)	(1,0)	(1,0)	(1,0)	(1,0)	(1,0)	
L1D -38>	(39,107)	(3,11)	(282,1)	(24,0)	(13,0)	(-1,0)	(1,0)	(1,0)	(1,0)	(1,0)	(1,0)	(1,0)	(1,0)	(1,0)	(1,0)	(1,0)	
L1D -37>	(13,24)	(-3,90)	(208,0)	(39,1)	(38,31)	(0,1)	(3,0)	(32,0)	(1,0)	(1,0)	(1,0)	(1,0)	(1,0)	(1,0)	(1,0)	(1,0)	
L1D -36>	(16,46)	(37,100)	(12,1)	(1,12)	(14,1)	(3,10)	(-1,1)	(-331,0)	(2,0)	(1,0)	(1,0)	(1,0)	(1,0)	(1,0)	(1,0)	(1,0)	
L1D -35>	(7,43)	(11,72)	(24,0)	(23,2)	(31,0)	(38,0)	(33,0)	(36,6)	(3,0)	(-2,0)	(1,0)	(1,0)	(1,0)	(1,0)	(1,0)	(1,0)	
L1D -34>	(35,92)	(-1,0)	(72,0)	(16,0)	(6,0)	(-2,0)	(1,1)	(18,0)	(1,0)	(1,0)	(1,0)	(1,0)	(1,0)	(1,0)	(1,0)	(1,0)	
L1D -33>	(34,17)	(3,109)	(6,1)	(-124,0)	(-1,0)	(-343,0)	(1,0)	(1,0)	(1,0)	(1,0)	(1,0)	(1,0)	(1,0)	(1,0)	(1,0)	(1,0)	
L1D -32>	(5,64)	(16,16)	(-3,36)	(10,1)	(-2,1)	(-1,12)	(14,20)	(3,3)	(1,2)	(13,1)	(15,2)	(24,2)	(166,0)	(338,0)	(-12,0)	(32,0)	
L1D -31>	(1,22)	(26,4)	(-1,12)	(24,2)	(16,10)	(-6,1)	(3,2)	(12,2)	(6,1)	(36,1)	(-28,1)	(-311,1)	(-284,1)	(-5,1)	(144,1)	(2,5)	
L1D -30>	(38,8)	(0,76)	(34,0)	(3,0)	(13,119)	(-8,0)	(-16,12)	(-14,0)	(26,0)	(-1,0)	(1,2)	(36,0)	(1,0)	(1,0)	(1,0)	(1,0)	
L1D -29>	(-1,23)	(1,15)	(66,1)	(-204,1)	(-138,1)	(34,2)	(11,4)	(-18,2)	(-6,2)	(-339,1)	(-141,1)	(8,1)	(-313,1)	(14,2)	(-4,1)	(-286,1)	
L1D -28>	(3,9)	(-1,23)	(1,5)	(-2,1)	(12,2)	(18,3)	(58,1)	(14,2)	(34,2)	(22,1)	(0,1)	(8,4)	(-335,1)	(-10,2)	(-389,1)	(-287,1)	
L1D -27>	(-1,3)	(10,1)	(-8,4)	(32,2)	(-3,67)	(1,3)	(5,21)	(-4,0)	(6,0)	(42,0)	(14,0)	(3,0)	(-347,0)	(22,0)	(0,0)	(84,0)	
L1D -26>	(16,28)	(1,13)	(-1,27)	(6,2)	(24,5)	(-313,1)	(-317,1)	(-4,4)	(36,2)	(4,2)	(-369,1)	(10,6)	(42,1)	(40,1)	(14,1)	(0,2)	
L1D -25>	(-1,15)	(26,64)	(-317,1)	(7,1)	(18,6)	(-13,5)	(1,8)	(3,1)	(20,0)	(8,0)	(24,1)	(4,0)	(36,0)	(-2,1)	(-4,0)	(0,1)	
L1D -24>	(1,93)	(-16,115)	(34,100)	(-13,15)	(16,69)	(22,0)	(-12,0)	(-329,0)	(48,1)	(14,0)	(-1,1)	(3,1)	(30,0)	(-2,0)	(1,0)	(1,0)	
L1D -23>	(20,39)	(1,57)	(-14,1)	(19,114)	(24,94)	(-17,43)	(-1,1)	(14,0)	(34,0)	(1,0)	(1,0)	(1,0)	(1,0)	(1,0)	(1,0)	(1,0)	
L1D -22>	(-238,0)	(9,19)	(-17,94)	(-21,1)	(-24,19)	(23,31)	(-60,0)	(5,0)	(16,0)	(15,0)	(-20,0)	(1,0)	(1,0)	(1,0)	(1,0)	(1,0)	
L1D -21>	(22,110)	(1,17)	(8,0)	(20,0)	(9,8)	(-1,0)	(-299,0)	(19,1)	(1,0)	(1,0)	(1,0)	(1,0)	(1,0)	(1,0)	(1,0)	(1,0)	
L1D -20>	(21,70)	(-21,2)	(-23,4)	(-240,0)	(-15,3)	(-6,0)	(19,3)	(-22,0)	(-4,0)	(8,0)	(6,0)	(1,0)	(1,0)	(1,0)	(1,0)	(1,0)	
L1D -19>	(1,8)	(-150,1)	(-1,10)	(8,2)	(2,1)	(-13,1)	(40,2)	(20,121)	(100,1)	(18,1)	(-355,1)	(114,1)	(30,1)	(24,1)	(12,1)	(25,1)	
L1D -18>	(16,45)	(-14,18)	(4,0)	(-1,6)	(-17,2)	(14,1)	(28,0)	(50,0)	(36,87)	(-9,2)	(3,1)	(146,0)	(1,0)	(6,0)	(2,0)	(-185,0)	
L1D -17>	(-22,19)	(9,94)	(27,3)	(-13,0)	(-10,0)	(36,3)	(25,0)	(3,4)	(1,0)	(1,0)	(1,0)	(1,0)	(1,0)	(1,0)	(1,0)	(1,0)	
L1D -16>	(34,66)	(32,1)	(28,1)	(357,0)	(17,45)	(-1,0)	(4,0)	(-2,1)	(3,15)	(-8,0)	(8,1)	(19,0)	(1,0)	(1,0)	(1,0)	(1,0)	
L1D -15>	(11,1)	(10,1)	(0,4)	(7,66)	(13,10)	(-10,0)	(-1,4)	(-16,0)	(14,0)	(-8,0)	(23,2)	(1,0)	(28,0)	(4,0)	(40,0)	(-349,0)	
L1D -14>	(-361,1)	(34,8)	(-3,9)	(-26,0)	(5,6)	(6,0)	(32,50)	(18,1)	(16,25)	(-351,0)	(33,100)	(-1,6)	(-130,0)	(26,0)	(-303,0)	(4,0)	
L1D -13>	(10,0)	(14,77)	(38,37)	(13,18)	(27,1)	(39,0)	(0,0)	(18,0)	(-303,0)	(2,0)	(-327,0)	(-1,0)	(1,0)	(1,0)	(1,0)	(1,0)	
L1D -12>	(36,77)	(-12,0)	(14,0)	(8,0)	(16,0)	(-1,0)	(1,0)	(1,0)	(1,0)	(1,0)	(1,0)	(1,0)	(1,0)	(1,0)	(1,0)	(1,0)	
L1D -11>	(1,27)	(-1,77)	(-4,4)	(0,2)	(6,6)	(-82,2)	(12,1)	(4,3)	(30,1)	(-6,2)	(-30,1)	(-136,1)	(-10,2)	(-345,2)	(8,4)	(-144,1)	
L1D -10>	(8,41)	(16,6)	(9,25)	(6,74)	(-4,2)	(-347,2)	(-1,80)	(-6,3)	(0,4)	(-54,1)	(30,2)	(-12,1)	(10,7)	(-10,4)	(-18,5)	(1,5)	
L1D -9>	(-33,77)	(10,111)	(1,1)	(-14,1)	(16,0)	(-64,5)	(4,0)	(-8,1)	(2,0)	(36,4)	(-1,0)	(7,39)	(28,0)	(8,2)	(-48,0)	(-220,0)	
L1D -8>	(3,1)	(-12,109)	(12,1)	(-24,0)	(18,1)	(-323,0)	(36,49)	(10,0)	(-8,0)	(24,7)	(20,8)	(4,1)	(-4,0)	(-1,0)	(1,0)	(1,0)	
L1D -7>	(-64,55)	(9,6)	(10,116)	(371,1)	(147,1)	(-138,1)	(-1,1)	(14,1)	(8,2)	(-35,14)	(28,0)	(-2,1)	(-325,0)	(-20,0)	(1,0)	(-311,0)	
L1D -6>	(38,36)	(-68,32)	(2,15)	(4,55)	(-2,4)	(-1,82)	(10,1)	(1,15)	(32,2)	(-333,2)	(-345,2)	(-16,3)	(34,2)	(8,3)	(18,9)	(-60,1)	
L1D -5>	(9,114)	(3,105)	(-2,1)	(4,96)	(-4,36)	(-1,12)	(6,1)	(14,2)	(10,28)	(0,8)	(1,6)	(-22,2)	(8,30)	(-27,101)	(32,1)	(-12,1)	
L1D -4>	(-20,2)	(-1,115)	(-323,1)	(16,1)	(36,2)	(-2,9)	(-70,62)	(-14,9)	(126,1)	(60,1)	(8,1)	(20,0)	(12,0)	(1,1)	(1,0)	(1,0)	
L1D -3>	(16,126)	(3,51)	(-12,1)	(18,1)	(-6,1)	(-1,3)	(-18,1)	(-71,0)	(33,3)	(1,5)	(1,0)	(1,0)	(1,0)	(1,0)	(1,0)	(1,0)	
L1D -2>	(5,88)	(-1,2)	(26,0)	(11,1)	(8,3)	(4,0)	(-112,0)	(-2,2)	(20,11)	(-52,0)	(1,23)	(-388,0)	(-70,2)	(-7,9)	(3,2)	(41,0)	
L1D -1>	(-3,2)	(2,7)	(-1,91)	(5,79)	(3,5)	(-5,17)	(1,67)	(4,76)	(-2,5)	(8,3)	(11,3)	(19,2)	(7,1)	(-69,57)	(-37,2)	(-25,3)	
L1D 0>	(0,117)	(1,21)	(6,0)	(-294,0)	(12,0)	(13,0)	(-377,0)	(5,0)	(1,0)	(1,0)	(1,0)	(1,0)	(1,0)	(1,0)	(1,0)	(1,0)	
L1D 1>	(-21,8)	(1,90)	(-2,2)	(2,4)	(-20,0)	(4,0)	(0,15)	(-23,1)	(-37,9)	(-24,1)	(3,3)	(-39,9)	(-22,7)	(-40,0)	(19,18)	(9,0)	
L1D 2>	(1,71)	(2,5)	(6,1)	(162,0)	(4,3)	(9,1)	(31,0)	(-1,2)	(10,1)	(49,0)	(3,65)	(0,0)	(-291,0)	(110,0)	(13,1)	(5,2)	
L1D 3>	(-3,7)	(0,13)	(13,52)	(-1,4)	(-2,30)	(-501,1)	(3,97)	(6,3)	(-4,1)	(2,31)	(1,26)	(5,2)	(14,3)	(33,7)	(30,4)	(24,1)	
L1D 4>	(13,1)	(-2,67)	(-1,4)	(15,0)	(1,4)	(9,0)	(-9,61)	(2,0)	(7,1)	(-75,1)	(16,2)	(3,3)	(5,1)	(36,13)	(6,0)	(8,0)	
L1D 5>	(-8,1)	(-2,71)	(-1,12)	(6,0)	(3,18)	(39,0)	(-36,0)	(12,0)	(5,0)	(-22,0)	(1,2)	(-4,0)	(96,0)	(15,0)	(1,0)	(1,0)	
L1D 6>	(2,51)	(1,55)	(-16,1)	(6,22)	(-2,40)	(-1,43)	(10,6)	(9,8)	(-120,2)	(5,4)	(3,115)	(-70,5)	(8,5)	(12,8)	(-490,4)	(4,2)	
L1D 7>	(16,55)	(24,95)	(9,0)	(3,5)	(-1,1)	(4,5)	(20,2)	(-375,0)	(7,0)	(2,0)	(1,8)	(-2,1)	(1,0)	(1,0)	(1,0)	(1,0)	
L1D 8>	(-1,20)	(-2,86)	(-367,1)	(1,37)	(18,1)	(-12,10)	(-319,1)	(3,15)	(6,2)	(24,2)	(9,1)	(-4,1)	(27,1)	(-14,0)	(12,0)	(-475,1)	
L1D 9>	(-5,0)	(18,107)	(-8,31)	(-2,13)	(-39,0)	(36,0)	(3,0)	(-16,5)	(-1,1)	(-18,6)	(24,1)	(1,2)	(2,0)	(6,0)	(9,0)	(1,0)	
L1D 10>	(-4,66)	(-18,0)	(-74,25)	(-1,8)	(1,2)	(84,0)	(-2,1)	(-3,2)	(22,0)	(-17,0)	(6,0)	(9,1)	(-6,1)	(0,0)	(38,0)	(-30,0)	
L1D 11>	(36,125)	(-353,0)	(-381,0)	(-1,1)	(-2,2)	(4,0)	(15,0)	(28,0)	(1,1)	(1,0)	(1,0)	(1,0)	(1,0)	(1,0)	(1,0)	(1,0)	
L1D 12>	(12,5)	(1,25)	(59,2)	(36,6)	(2,9)	(39,2)	(52,1)	(-2,19)	(24,76)	(6,2)	(-1,16)	(48,1)	(23,1)	(18,1)	(3,20)	(27,1)	
L1D 13>	(1,80)	(-13,20)	(25,25)	(14,0)	(20,5)	(9,0)	(92,1)	(-2,0)	(-14,0)	(-16,2)	(17,1)	(2,0)	(10,0)	(1,0)	(1,0)	(1,0)	
L1D 14>	(-1,1)	(19,90)	(21,0)	(-14,1)	(-21,0)	(-2,0)	(-12,0)	(-9,0)	(39,0)	(18,1)	(5,1)	(1,0)	(2,0)	(-17,1)	(3,0)	(1,0)	
L1D 15>	(-22,12)	(-1,21)	(-4,15)	(1,22)	(-2,21)	(-36,77)	(-15,6)	(12,4)	(15,2)	(-12,2)	(2,7)	(6,4)	(3,38)	(9,3)	(-18,3)	(18,2)	
L1D 16>	(-12,76)	(-13,123)	(-21,2)	(-367,1)	(0,1)	(1,92)	(-15,5)	(18,11)	(20,13)	(-23,10)	(10,1)	(8,1)	(-14,2)	(-8,35)	(-4,2)	(32,2)	
L1D 17>	(8,17)	(27,1)	(19,119)	(10,0)	(-1,6)	(-30,3)	(-16,5)	(-14,127)	(16,0)	(-2,10)	(9,0)	(3,3)	(2,0)	(30,0)	(-10,0)	(1,5)	
L1D 18>	(-35,68)	(-22,0)	(-15,0)	(-212,0)	(-42,0)	(-1,0)	(2,0)	(-43,7)	(-5,0)	(-32,0)	(1,0)	(-260,0)	(14,0)	(-41,0)	(-36,2)	(1,0)	
L1D 19>	(1,108)	(-351,0)	(-20,5)	(-18,0)	(-33,2)	(-36,6)	(3,0)	(4,0)	(1,0)	(1,0)	(1,0)	(1,0)	(1,0)	(1,0)	(1,0)	(1,0)	
L1D 20>	(1,78)	(-16,2)	(-38,0)	(-8,0)	(3,0)	(-35,41)	(-17,0)	(-43,64)	(-2,2)	(16,45)	(-1,0)	(-15,1)	(-42,1)	(-41,2)	(-20,0)	(-260,0)	
L1D 21>	(1,97)	(3,0)	(-2,0)	(2,0)	(21,0)	(-156,0)	(1,0)	(1,0)	(1,0)	(1,0)	(1,0)	(1,0)	(1,0)	(1,0)	(1,0)	(1,0)	
L1D 22>	(1,71)	(2,0)	(-1,0)	(-14,0)	(-4,0)	(1,0)	(1,0)	(1,0)	(1,0)	(1,0)	(1,0)	(1,0)	(1,0)	(1,0)	(1,0)	(1,0)	
L1D 23>	(-36,1)	(-1,2)	(1,81)	(-12,32)	(156,0)	(-40,0)	(-2,126)	(-3,4)	(-16,0)	(3,0)	(-4,0)	(1,0)	(1,0)	(1,0)	(1,0)	(1,0)	
L1D 24>	(-8,127)	(-23,27)	(-46,1)	(-196,0)	(-39,16)	(-37,4)	(-1,0)	(-40,0)	(2,0)	(6,0)	(24,0)	(3,3)	(0,0)	(1,0)	(1,0)	(1,0)	
L1D 25>	(1,96)	(-391,1)	(-38,71)	(-8,2)	(-351,0)	(7,0)	(-16,0)	(1,0)	(1,0)	(1,0)	(1,0)	(1,0)	(1,0)	(1,0)	(1,0)	(1,0)	
L1D 26>	(-42,126)	(40,3)	(-1,33)	(1,28)	(-2,60)	(-17,12)	(11,6)	(-9,72)	(3,18)	(9,1)	(-39,15)	(-26,2)	(5,2)	(-7,4)	(-4,4)	(-16,3)	
L1D 27>	(18,0)	(-27,0)	(-42,0)	(-30,0)	(-22,6)	(5,3)	(-14,0)	(6,1)	(-43,8)	(-20,16)	(-35,82)	(-36,9)	(2,0)	(-34,0)	(3,1)	(-2,1)	
L1D 28>	(14,37)	(1,22)	(2,5)	(-184,2)	(-1,20)	(3,15)	(-4,2)	(24,2)	(-38,3)	(-18,1)	(-16,1)	(4,1)	(-240,1)	(108,1)	(-6,1)	(-361,1)	
L1D 29>	(-1,44)	(-36,4)	(1,32)	(-2,54)	(2,3)	(-383,1)	(-8,2)	(8,1)	(-369,1)	(10,1)	(3,23)	(-30,2)	(-305,1)	(-249,1)	(-13,4)	(-363,1)	
L1D 30>	(-17,8)	(-33,103)	(-30,15)	(27,1)	(3,1)	(-1,0)	(66,0)	(-232,0)	(-140,0)	(1,0)	(1,0)	(1,0)	(1,0)	(1,0)	(1,0)	(1,0)	
L1D 31>	(1,8)	(-1,4)	(-8,96)	(0,1)	(-22,1)	(-26,1)	(4,0)	(-30,0)	(-386,0)	(-10,0)	(-14,0)	(1,0)	(1,0)	(1,0)	(1,0)	(1,0)	
L1D 32>	(-498,0)	(-5,77)	(-8,2)	(-35,13)	(-32,23)	(-27,1)	(-22,18)	(2,1)	(-2,8)	(50,0)	(-1,3)	(-18,2)	(6,0)	(-70,0)	(3,4)	(1,4)	
L1D 33>	(-30,33)	(1,66)	(206,0)	(-1,0)	(-2,0)	(-19,3)	(3,0)	(-20,1)	(1,0)	(1,0)	(1,0)	(1,0)	(1,0)	(1,0)	(1,0)	(1,0)	
L1D 34>	(-35,122)	(-21,0)	(-22,1)	(-43,8)	(-41,0)	(-44,0)	(1,16)	(-1,0)	(-20,0)	(1,0)	(1,0)	(1,0)	(1,0)	(1,0)	(1,0)	(1,0)	
L1D 35>	(1,126)	(-1,3)	(-24,1)	(-22,20)	(3,1)	(-2,2)	(-28,0)	(-415,0)	(-270,0)	(1,0)	(1,0)	(1,0)	(1,0)	(1,0)	(1,0)	(1,0)	
L1D 36>	(-22,74)	(-35,0)	(1,7)	(-46,9)	(-8,20)	(-39,26)	(-17,14)	(-20,0)	(-16,0)	(-23,0)	(-48,0)	(3,0)	(-33,1)	(-32,0)	(-30,0)	(1,0)	
L1D 37>	(1,54)	(-24,116)	(-37,8)	(-170,1)	(-34,41)	(-8,0)	(-40,5)	(-1,1)	(3,0)	(1,0)	(1,0)	(1,0)	(1,0)	(1,0)	(1,0)	(1,0)	
L1D 38>	(-22,6)	(1,94)	(-2,0)	(-35,27)	(-25,1)	(3,0)	(-1,2)	(-38,1)	(-10,0)	(1,0)	(1,0)	(1,0)	(1,0)	(1,0)	(1,0)	(1,0)	
L1D 39>	(1,123)	(-9,120)	(-42,70)	(-2,2)	(-182,1)	(-36,66)	(-1,1)	(6,0)	(3,4)	(-7,6)	(1,0)	(1,0)	(1,0)	(1,0)	(1,0)	(1,0)	
L1D 40>	(-37,69)	(9,0)	(-14,0)	(-1,0)	(1,0)	(1,0)	(1,0)	(1,0)	(1,0)	(1,0)	(1,0)	(1,0)	(1,0)	(1,0)	(1,0)	(1,0)	
L1D 41>	(1,31)	(-1,12)	(-2,10)	(2,5)	(28,2)	(4,2)	(-8,1)	(-14,1)	(-24,1)	(-114,1)	(-16,2)	(-32,1)	(3,5)	(-338,1)	(6,2)	(-38,1)	
L1D 42>	(1,22)	(-1,7)	(6,9)	(-2,6)	(3,16)	(2,3)	(10,2)	(-94,1)	(0,1)	(-20,1)	(-72,1)	(-385,1)	(193,1)	(-220,1)	(-216,1)	(-297,1)	
L1D 43>	(2,3)	(1,29)	(-1,3)	(5,2)	(-4,1)	(3,2)	(146,1)	(-42,1)	(112,1)	(-74,1)	(24,1)	(152,1)	(-123,2)	(-160,2)	(54,1)	(50,1)	
L1D 44>	(-1,10)	(9,2)	(-2,18)	(3,5)	(1,12)	(121,2)	(16,1)	(-30,1)	(80,1)	(-26,1)	(69,1)	(-24,1)	(18,1)	(10,1)	(12,1)	(15,1)	
L1D 45>	(-1,4)	(1,32)	(121,2)	(-2,2)	(-351,1)	(-26,1)	(-162,1)	(2,7)	(288,1)	(-40,1)	(3,2)	(-70,1)	(33,2)	(-12,1)	(42,1)	(9,1)	
L1D 46>	(-32,1)	(3,4)	(1,7)	(-170,1)	(-1,3)	(2,5)	(-357,1)	(-200,1)	(-184,1)	(-22,1)	(-148,1)	(286,1)	(-42,1)	(0,1)	(-108,1)	(6,1)	
L1D 47>	(-1,7)	(1,22)	(-206,1)	(36,1)	(228,1)	(3,2)	(50,1)	(-2,8)	(11,2)	(9,1)	(-179,1)	(271,1)	(52,1)	(23,1)	(266,1)	(-32,1)	
L1D 48>	(1,20)	(-22,42)	(4,2)	(5,2)	(-136,1)	(-10,1)	(42,1)	(-2,6)	(3,19)	(-1,2)	(-88,1)	(-138,4)	(-373,1)	(219,1)	(-415,1)	(2,1)	
L1D 49>	(-1,2)	(1,14)	(84,2)	(46,1)	(-194,1)	(-42,1)	(345,1)	(-158,1)	(5,2)	(-76,1)	(3,2)	(-52,1)	(1,0)	(1,0)	(1,0)	(1,0)	
L1D 50>	(2,2)	(-20,1)	(1,13)	(-1,2)	(-440,1)	(-2,12)	(-12,1)	(-144,1)	(-64,1)	(-265,1)	(-82,1)	(3,4)	(226,1)	(12,1)	(126,1)	(-150,1)	
L1D 51>	(1,25)	(-1,1)	(-162,1)	(2,9)	(-196,1)	(112,1)	(3,7)	(-55,1)	(-174,1)	(-44,1)	(-98,1)	(-2,2)	(-14,1)	(48,1)	(-312,1)	(1,0)	
L1D 52>	(1,12)	(313,1)	(-82,1)	(72,1)	(-60,1)	(6,2)	(178,1)	(-64,1)	(1,0)	(1,0)	(1,0)	(1,0)	(1,0)	(1,0)	(1,0)	(1,0)	
L1D 53>	(-2,8)	(1,26)	(-160,1)	(3,8)	(-146,1)	(-12,1)	(-50,1)	(-18,1)	(278,1)	(2,2)	(-192,1)	(-26,1)	(6,1)	(1,0)	(1,0)	(1,0)	
L1D 54>	(1,13)	(2,3)	(3,10)	(80,1)	(-2,1)	(-80,1)	(323,1)	(-46,1)	(-66,1)	(-18,1)	(-48,1)	(6,1)	(-52,1)	(24,1)	(5,1)	(20,1)	
L1D 55>	(1,21)	(-1,5)	(210,1)	(278,1)	(-310,1)	(-136,1)	(237,1)	(-4,1)	(17,1)	(-86,1)	(105,1)	(0,1)	(38,1)	(1,0)	(1,0)	(1,0)	
L1D 56>	(1,10)	(-1,2)	(12,3)	(-62,2)	(3,5)	(-2,7)	(-397,1)	(108,1)	(15,2)	(-194,1)	(106,1)	(-223,1)	(18,2)	(-296,1)	(6,2)	(2,2)	
L1D 57>	(20,1)	(1,24)	(-2,5)	(-30,1)	(3,9)	(42,1)	(33,5)	(0,1)	(-47,1)	(-60,1)	(2,5)	(-402,1)	(36,1)	(-240,1)	(-280,1)	(18,1)	
L1D 58>	(1,5)	(-65,1)	(217,1)	(-170,1)	(-16,1)	(-2,1)	(-58,1)	(-321,1)	(-322,1)	(-118,1)	(30,1)	(98,1)	(27,1)	(-280,1)	(3,2)	(-184,1)	
L1D 59>	(1,21)	(-2,12)	(-1,4)	(6,1)	(3,3)	(-4,1)	(-158,1)	(36,1)	(-180,1)	(226,1)	(-59,1)	(-242,1)	(-144,1)	(-40,1)	(-16,1)	(1,0)	
L1D 60>	(1,4)	(2,3)	(-2,2)	(3,2)	(-407,1)	(-132,1)	(-138,1)	(99,1)	(-41,1)	(33,1)	(258,1)	(12,1)	(-383,1)	(-1,1)	(-206,1)	(-121,1)	
L1D 61>	(1,16)	(-1,1)	(160,1)	(-44,1)	(-2,1)	(54,1)	(56,1)	(-242,1)	(1,0)	(1,0)	(1,0)	(1,0)	(1,0)	(1,0)	(1,0)	(1,0)	
L1D 62>	(-1,4)	(1,8)	(-130,1)	(-2,3)	(97,1)	(2,1)	(-14,1)	(32,1)	(28,1)	(-36,1)	(88,1)	(-213,1)	(9,1)	(76,1)	(-102,1)	(-34,1)	
L1D 63>	(1,29)	(52,1)	(9,1)	(178,1)	(196,1)	(3,2)	(-24,2)	(-2,1)	(15,1)	(2,1)	(-103,1)	(6,1)	(239,1)	(1,0)	(1,0)	(1,0)	
L1D 64>	(10,72)	(-166,0)	(-138,0)	(7,0)	(-358,0)	(1,0)	(9,36)	(8,2)	(-4,15)	(6,2)	(-14,1)	(-1,0)	(-373,0)	(1,0)	(1,0)	(1,0)	
L1D 65>	(1,29)	(-2,4)	(70,1)	(122,1)	(-36,1)	(50,1)	(28,1)	(-108,1)	(213,1)	(-40,1)	(-78,1)	(1,0)	(1,0)	(1,0)	(1,0)	(1,0)	
L1D 66>	(10,66)	(-64,7)	(9,16)	(1,5)	(2,2)	(-278,1)	(-1,1)	(3,3)	(7,4)	(-234,1)	(18,1)	(-174,1)	(112,1)	(-2,3)	(8,1)	(-32,1)	
L1D 67>	(-282,1)	(1,22)	(4,1)	(-134,1)	(3,4)	(50,1)	(-46,1)	(346,1)	(-75,1)	(82,1)	(-186,1)	(-118,1)	(-172,1)	(-143,1)	(-6,1)	(2,2)	
L1D 68>	(9,69)	(-1,2)	(-4,26)	(1,6)	(54,1)	(130,1)	(-2,1)	(-291,1)	(-52,1)	(-12,1)	(-14,1)	(24,3)	(106,1)	(3,1)	(10,1)	(1,0)	
L1D 69>	(-77,0)	(4,83)	(-28,0)	(-5,12)	(5,0)	(-1,0)	(3,0)	(1,0)	(1,0)	(1,0)	(1,0)	(1,0)	(1,0)	(1,0)	(1,0)	(1,0)	
L1D 70>	(-1,68)	(-10,0)	(54,0)	(1,0)	(1,0)	(1,0)	(1,0)	(1,0)	(1,0)	(1,0)	(1,0)	(1,0)	(1,0)	(1,0)	(1,0)	(1,0)	
L1D 71>	(3,52)	(-73,4)	(4,31)	(-7,55)	(1,87)	(-5,7)	(-58,1)	(86,1)	(-110,1)	(211,1)	(-188,1)	(-2,1)	(-128,1)	(-1,1)	(-16,1)	(1,0)	
L1D 72>	(-1,33)	(-2,98)	(1,12)	(38,1)	(-8,1)	(3,2)	(94,1)	(-164,1)	(180,1)	(26,1)	(-62,1)	(34,1)	(-240,1)	(106,1)	(39,1)	(-30,2)	
L1D 73>	(-5,0)	(-75,0)	(1,1)	(3,0)	(-2,43)	(-54,0)	(54,0)	(-370,0)	(-7,0)	(-9,78)	(-73,0)	(-112,0)	(1,0)	(1,0)	(1,0)	(1,0)	
L1D 74>	(-4,73)	(-2,1)	(3,0)	(21,0)	(1,1)	(-10,1)	(-101,0)	(1,0)	(1,0)	(1,0)	(1,0)	(1,0)	(1,0)	(1,0)	(1,0)	(1,0)	
L1D 75>	(-2,21)	(-5,33)	(1,29)	(-1,2)	(2,3)	(-9,14)	(-356,1)	(-6,1)	(16,1)	(-34,1)	(-322,1)	(-48,1)	(3,1)	(1,0)	(1,0)	(1,0)	
L1D 76>	(-2,89)	(-4,105)	(-3,3)	(1,7)	(-10,27)	(33,1)	(-110,1)	(-64,1)	(-100,1)	(302,1)	(-1,1)	(3,3)	(42,1)	(-172,1)	(1,0)	(1,0)	
L1D 77>	(1,13)	(-5,7)	(-1,3)	(-2,55)	(-9,57)	(-75,4)	(-66,1)	(239,1)	(9,2)	(3,1)	(-52,1)	(-73,3)	(-244,1)	(-26,1)	(1,0)	(1,0)	
L1D 78>	(38,1)	(110,1)	(-70,1)	(1,8)	(-2,4)	(-22,1)	(182,1)	(2,3)	(3,1)	(33,1)	(1,0)	(1,0)	(1,0)	(1,0)	(1,0)	(1,0)	
L1D 79>	(1,20)	(-1,2)	(-12,1)	(-228,1)	(18,1)	(-56,1)	(-144,1)	(-324,1)	(-112,1)	(-216,1)	(1,0)	(1,0)	(1,0)	(1,0)	(1,0)	(1,0)	
L1D 80>	(-2,6)	(1,7)	(36,1)	(-268,1)	(276,1)	(-283,1)	(3,1)	(-222,1)	(9,1)	(214,1)	(6,1)	(-1,1)	(-42,1)	(-71,1)	(16,1)	(1,0)	
L1D 81>	(1,19)	(-76,1)	(3,1)	(24,2)	(6,4)	(194,1)	(-46,1)	(-160,1)	(1,0)	(1,0)	(1,0)	(1,0)	(1,0)	(1,0)	(1,0)	(1,0)	
L1D 82>	(1,7)	(-80,1)	(3,1)	(-370,1)	(146,1)	(4,1)	(-90,1)	(74,1)	(-38,1)	(82,1)	(-138,1)	(2,1)	(20,1)	(-186,1)	(134,1)	(1,0)	
L1D 83>	(-1,7)	(1,17)	(-302,1)	(282,1)	(276,1)	(222,1)	(-190,1)	(-2,4)	(-98,1)	(-24,1)	(120,1)	(186,1)	(1,0)	(1,0)	(1,0)	(1,0)	
L1D 84>	(1,7)	(-1,2)	(-100,1)	(26,1)	(72,1)	(-164,1)	(-2,1)	(-4,1)	(3,3)	(-394,1)	(2,2)	(-6,1)	(266,1)	(253,1)	(-12,1)	(1,0)	
L1D 85>	(1,25)	(48,1)	(188,1)	(40,1)	(14,1)	(-9,3)	(-2,3)	(-282,1)	(30,1)	(3,1)	(-266,1)	(1,0)	(1,0)	(1,0)	(1,0)	(1,0)	
L1D 86>	(-24,1)	(1,6)	(281,1)	(236,1)	(-1,2)	(170,1)	(-2,2)	(275,1)	(-174,1)	(-54,1)	(1,0)	(1,0)	(1,0)	(1,0)	(1,0)	(1,0)	
L1D 87>	(1,9)	(3,4)	(-2,1)	(-84,1)	(-98,1)	(329,1)	(248,1)	(82,1)	(-78,2)	(1,0)	(1,0)	(1,0)	(1,0)	(1,0)	(1,0)	(1,0)	
L1D 88>	(1,4)	(-1,2)	(30,1)	(-395,1)	(-126,1)	(-180,1)	(-182,1)	(0,1)	(-158,1)	(1,0)	(1,0)	(1,0)	(1,0)	(1,0)	(1,0)	(1,0)	
L1D 89>	(1,22)	(-267,1)	(56,1)	(-2,1)	(152,1)	(-124,1)	(-68,1)	(-152,1)	(-106,1)	(-42,1)	(116,1)	(-227,1)	(1,0)	(1,0)	(1,0)	(1,0)	
L1D 90>	(-90,102)	(1,1)	(-378,1)	(-118,0)	(-72,0)	(28,0)	(-134,0)	(-227,0)	(200,0)	(58,0)	(-1,0)	(1,0)	(1,0)	(1,0)	(1,0)	(1,0)	
L1D 91>	(1,23)	(-1,2)	(2,1)	(82,1)	(204,1)	(-192,1)	(-42,1)	(1,0)	(1,0)	(1,0)	(1,0)	(1,0)	(1,0)	(1,0)	(1,0)	(1,0)	
L1D 92>	(1,7)	(-1,2)	(134,1)	(38,1)	(-98,1)	(6,1)	(3,2)	(1,0)	(1,0)	(1,0)	(1,0)	(1,0)	(1,0)	(1,0)	(1,0)	(1,0)	
L1D 93>	(-1,2)	(-102,1)	(1,15)	(2,4)	(88,1)	(-6,1)	(78,1)	(-393,2)	(-2,1)	(-210,1)	(12,1)	(168,1)	(-105,1)	(4,1)	(1,0)	(1,0)	
L1D 94>	(1,6)	(-326,1)	(62,1)	(-6,1)	(-238,1)	(-30,1)	(166,1)	(10,1)	(98,1)	(-268,1)	(46,1)	(-170,1)	(-136,1)	(1,0)	(1,0)	(1,0)	
L1D 95>	(1,21)	(-30,1)	(-2,3)	(-266,1)	(3,2)	(60,1)	(52,1)	(-486,1)	(108,1)	(74,1)	(-300,1)	(-104,1)	(-349,1)	(-184,1)	(64,1)	(-105,1)	
L1D 96>	(1,6)	(-132,1)	(-14,1)	(-174,1)	(-56,1)	(-238,1)	(76,1)	(90,1)	(-2,2)	(3,5)	(-177,1)	(-183,3)	(-26,1)	(-254,1)	(-1,1)	(6,1)	
L1D 97>	(1,26)	(76,1)	(-26,1)	(-108,1)	(-120,1)	(5,1)	(26,1)	(3,1)	(1,0)	(1,0)	(1,0)	(1,0)	(1,0)	(1,0)	(1,0)	(1,0)	
L1D 98>	(1,10)	(-262,1)	(-2,7)	(6,4)	(3,2)	(104,1)	(-1,2)	(26,1)	(-24,1)	(1,0)	(1,0)	(1,0)	(1,0)	(1,0)	(1,0)	(1,0)	
[...]
L1D 470>	(1,0)	(1,0)	(1,0)	(1,0)	(1,0)	(1,0)	(1,0)	(1,0)	(1,0)	(1,0)	(1,0)	(1,0)	(1,0)	(1,0)	(1,0)	(1,0)	
L1D 471>	(1,0)	(1,0)	(1,0)	(1,0)	(1,0)	(1,0)	(1,0)	(1,0)	(1,0)	(1,0)	(1,0)	(1,0)	(1,0)	(1,0)	(1,0)	(1,0)	
L1D 472>	(1,0)	(1,0)	(1,0)	(1,0)	(1,0)	(1,0)	(1,0)	(1,0)	(1,0)	(1,0)	(1,0)	(1,0)	(1,0)	(1,0)	(1,0)	(1,0)	
L1D 473>	(1,0)	(1,0)	(1,0)	(1,0)	(1,0)	(1,0)	(1,0)	(1,0)	(1,0)	(1,0)	(1,0)	(1,0)	(1,0)	(1,0)	(1,0)	(1,0)	
L1D 474>	(1,0)	(1,0)	(1,0)	(1,0)	(1,0)	(1,0)	(1,0)	(1,0)	(1,0)	(1,0)	(1,0)	(1,0)	(1,0)	(1,0)	(1,0)	(1,0)	
L1D 475>	(1,0)	(1,0)	(1,0)	(1,0)	(1,0)	(1,0)	(1,0)	(1,0)	(1,0)	(1,0)	(1,0)	(1,0)	(1,0)	(1,0)	(1,0)	(1,0)	
L1D 476>	(1,0)	(1,0)	(1,0)	(1,0)	(1,0)	(1,0)	(1,0)	(1,0)	(1,0)	(1,0)	(1,0)	(1,0)	(1,0)	(1,0)	(1,0)	(1,0)	
L1D 477>	(1,0)	(1,0)	(1,0)	(1,0)	(1,0)	(1,0)	(1,0)	(1,0)	(1,0)	(1,0)	(1,0)	(1,0)	(1,0)	(1,0)	(1,0)	(1,0)	
L1D 478>	(1,0)	(1,0)	(1,0)	(1,0)	(1,0)	(1,0)	(1,0)	(1,0)	(1,0)	(1,0)	(1,0)	(1,0)	(1,0)	(1,0)	(1,0)	(1,0)	
L1D 479>	(1,0)	(1,0)	(1,0)	(1,0)	(1,0)	(1,0)	(1,0)	(1,0)	(1,0)	(1,0)	(1,0)	(1,0)	(1,0)	(1,0)	(1,0)	(1,0)	
L1D 480>	(1,0)	(1,0)	(1,0)	(1,0)	(1,0)	(1,0)	(1,0)	(1,0)	(1,0)	(1,0)	(1,0)	(1,0)	(1,0)	(1,0)	(1,0)	(1,0)	
L1D 481>	(1,0)	(1,0)	(1,0)	(1,0)	(1,0)	(1,0)	(1,0)	(1,0)	(1,0)	(1,0)	(1,0)	(1,0)	(1,0)	(1,0)	(1,0)	(1,0)	
L1D 482>	(1,0)	(1,0)	(1,0)	(1,0)	(1,0)	(1,0)	(1,0)	(1,0)	(1,0)	(1,0)	(1,0)	(1,0)	(1,0)	(1,0)	(1,0)	(1,0)	
L1D 483>	(1,0)	(1,0)	(1,0)	(1,0)	(1,0)	(1,0)	(1,0)	(1,0)	(1,0)	(1,0)	(1,0)	(1,0)	(1,0)	(1,0)	(1,0)	(1,0)	
L1D 484>	(1,0)	(1,0)	(1,0)	(1,0)	(1,0)	(1,0)	(1,0)	(1,0)	(1,0)	(1,0)	(1,0)	(1,0)	(1,0)	(1,0)	(1,0)	(1,0)	
L1D 485>	(1,0)	(1,0)	(1,0)	(1,0)	(1,0)	(1,0)	(1,0)	(1,0)	(1,0)	(1,0)	(1,0)	(1,0)	(1,0)	(1,0)	(1,0)	(1,0)	
L1D 486>	(1,0)	(1,0)	(1,0)	(1,0)	(1,0)	(1,0)	(1,0)	(1,0)	(1,0)	(1,0)	(1,0)	(1,0)	(1,0)	(1,0)	(1,0)	(1,0)	
L1D 487>	(-1,1)	(1,0)	(1,0)	(1,0)	(1,0)	(1,0)	(1,0)	(1,0)	(1,0)	(1,0)	(1,0)	(1,0)	(1,0)	(1,0)	(1,0)	(1,0)	
L1D 488>	(1,0)	(1,0)	(1,0)	(1,0)	(1,0)	(1,0)	(1,0)	(1,0)	(1,0)	(1,0)	(1,0)	(1,0)	(1,0)	(1,0)	(1,0)	(1,0)	
L1D 489>	(1,0)	(1,0)	(1,0)	(1,0)	(1,0)	(1,0)	(1,0)	(1,0)	(1,0)	(1,0)	(1,0)	(1,0)	(1,0)	(1,0)	(1,0)	(1,0)	
L1D 490>	(1,0)	(1,0)	(1,0)	(1,0)	(1,0)	(1,0)	(1,0)	(1,0)	(1,0)	(1,0)	(1,0)	(1,0)	(1,0)	(1,0)	(1,0)	(1,0)	
L1D 491>	(1,0)	(1,0)	(1,0)	(1,0)	(1,0)	(1,0)	(1,0)	(1,0)	(1,0)	(1,0)	(1,0)	(1,0)	(1,0)	(1,0)	(1,0)	(1,0)	
L1D 492>	(1,0)	(1,0)	(1,0)	(1,0)	(1,0)	(1,0)	(1,0)	(1,0)	(1,0)	(1,0)	(1,0)	(1,0)	(1,0)	(1,0)	(1,0)	(1,0)	
L1D 493>	(-136,1)	(1,0)	(1,0)	(1,0)	(1,0)	(1,0)	(1,0)	(1,0)	(1,0)	(1,0)	(1,0)	(1,0)	(1,0)	(1,0)	(1,0)	(1,0)	
L1D 494>	(1,0)	(1,0)	(1,0)	(1,0)	(1,0)	(1,0)	(1,0)	(1,0)	(1,0)	(1,0)	(1,0)	(1,0)	(1,0)	(1,0)	(1,0)	(1,0)	
L1D 495>	(1,0)	(1,0)	(1,0)	(1,0)	(1,0)	(1,0)	(1,0)	(1,0)	(1,0)	(1,0)	(1,0)	(1,0)	(1,0)	(1,0)	(1,0)	(1,0)	
L1D 496>	(1,0)	(1,0)	(1,0)	(1,0)	(1,0)	(1,0)	(1,0)	(1,0)	(1,0)	(1,0)	(1,0)	(1,0)	(1,0)	(1,0)	(1,0)	(1,0)	
L1D 497>	(1,0)	(1,0)	(1,0)	(1,0)	(1,0)	(1,0)	(1,0)	(1,0)	(1,0)	(1,0)	(1,0)	(1,0)	(1,0)	(1,0)	(1,0)	(1,0)	
L1D 498>	(1,0)	(1,0)	(1,0)	(1,0)	(1,0)	(1,0)	(1,0)	(1,0)	(1,0)	(1,0)	(1,0)	(1,0)	(1,0)	(1,0)	(1,0)	(1,0)	
L1D 499>	(1,0)	(1,0)	(1,0)	(1,0)	(1,0)	(1,0)	(1,0)	(1,0)	(1,0)	(1,0)	(1,0)	(1,0)	(1,0)	(1,0)	(1,0)	(1,0)	
L1D 500>	(1,0)	(1,0)	(1,0)	(1,0)	(1,0)	(1,0)	(1,0)	(1,0)	(1,0)	(1,0)	(1,0)	(1,0)	(1,0)	(1,0)	(1,0)	(1,0)	
L1D 501>	(1,0)	(1,0)	(1,0)	(1,0)	(1,0)	(1,0)	(1,0)	(1,0)	(1,0)	(1,0)	(1,0)	(1,0)	(1,0)	(1,0)	(1,0)	(1,0)	
L1D 502>	(1,0)	(1,0)	(1,0)	(1,0)	(1,0)	(1,0)	(1,0)	(1,0)	(1,0)	(1,0)	(1,0)	(1,0)	(1,0)	(1,0)	(1,0)	(1,0)	
L1D 503>	(1,0)	(1,0)	(1,0)	(1,0)	(1,0)	(1,0)	(1,0)	(1,0)	(1,0)	(1,0)	(1,0)	(1,0)	(1,0)	(1,0)	(1,0)	(1,0)	
L1D 504>	(1,0)	(1,0)	(1,0)	(1,0)	(1,0)	(1,0)	(1,0)	(1,0)	(1,0)	(1,0)	(1,0)	(1,0)	(1,0)	(1,0)	(1,0)	(1,0)	
L1D 505>	(1,0)	(1,0)	(1,0)	(1,0)	(1,0)	(1,0)	(1,0)	(1,0)	(1,0)	(1,0)	(1,0)	(1,0)	(1,0)	(1,0)	(1,0)	(1,0)	
L1D 506>	(1,0)	(1,0)	(1,0)	(1,0)	(1,0)	(1,0)	(1,0)	(1,0)	(1,0)	(1,0)	(1,0)	(1,0)	(1,0)	(1,0)	(1,0)	(1,0)	
L1D 507>	(1,0)	(1,0)	(1,0)	(1,0)	(1,0)	(1,0)	(1,0)	(1,0)	(1,0)	(1,0)	(1,0)	(1,0)	(1,0)	(1,0)	(1,0)	(1,0)	
L1D 508>	(1,0)	(1,0)	(1,0)	(1,0)	(1,0)	(1,0)	(1,0)	(1,0)	(1,0)	(1,0)	(1,0)	(1,0)	(1,0)	(1,0)	(1,0)	(1,0)	
L1D 509>	(1,0)	(1,0)	(1,0)	(1,0)	(1,0)	(1,0)	(1,0)	(1,0)	(1,0)	(1,0)	(1,0)	(1,0)	(1,0)	(1,0)	(1,0)	(1,0)	
L1D 510>	(1,0)	(1,0)	(1,0)	(1,0)	(1,0)	(1,0)	(1,0)	(1,0)	(1,0)	(1,0)	(1,0)	(1,0)	(1,0)	(1,0)	(1,0)	(1,0)	
L1D 511>	(1,0)	(1,0)	(1,0)	(1,0)	(1,0)	(1,0)	(1,0)	(1,0)	(1,0)	(1,0)	(1,0)	(1,0)	(1,0)	(1,0)	(1,0)	(1,0)	

L2C -64>	(1,229)	(6,15)	(-1,9)	(8,9)	(9,13)	(-3,5)	(5,12)	(4,6)	(-62,1)	(2,17)	(0,8)	(7,12)	(-4,3)	(10,6)	(14,2)	(20,3)	
L2C -63>	(1,182)	(5,1)	(2,1)	(15,2)	(4,1)	(3,2)	(1,0)	(1,0)	(1,0)	(1,0)	(1,0)	(1,0)	(1,0)	(1,0)	(1,0)	(1,0)	
L2C -62>	(1,62)	(6,3)	(1,0)	(1,0)	(1,0)	(1,0)	(1,0)	(1,0)	(1,0)	(1,0)	(1,0)	(1,0)	(1,0)	(1,0)	(1,0)	(1,0)	
L2C -61>	(1,28)	(-1,1)	(1,0)	(1,0)	(1,0)	(1,0)	(1,0)	(1,0)	(1,0)	(1,0)	(1,0)	(1,0)	(1,0)	(1,0)	(1,0)	(1,0)	
L2C -60>	(1,12)	(-1,2)	(8,1)	(1,0)	(1,0)	(1,0)	(1,0)	(1,0)	(1,0)	(1,0)	(1,0)	(1,0)	(1,0)	(1,0)	(1,0)	(1,0)	
L2C -59>	(1,17)	(30,1)	(2,1)	(-3,1)	(1,0)	(1,0)	(1,0)	(1,0)	(1,0)	(1,0)	(1,0)	(1,0)	(1,0)	(1,0)	(1,0)	(1,0)	
L2C -58>	(-1,10)	(1,14)	(35,1)	(32,1)	(26,1)	(43,1)	(19,1)	(1,0)	(1,0)	(1,0)	(1,0)	(1,0)	(1,0)	(1,0)	(1,0)	(1,0)	
L2C -57>	(1,13)	(36,1)	(56,1)	(1,0)	(1,0)	(1,0)	(1,0)	(1,0)	(1,0)	(1,0)	(1,0)	(1,0)	(1,0)	(1,0)	(1,0)	(1,0)	
L2C -56>	(6,1)	(1,12)	(-1,2)	(38,1)	(2,1)	(8,1)	(1,0)	(1,0)	(1,0)	(1,0)	(1,0)	(1,0)	(1,0)	(1,0)	(1,0)	(1,0)	
L2C -55>	(38,1)	(1,11)	(29,1)	(43,1)	(11,1)	(2,1)	(9,1)	(55,1)	(42,1)	(40,1)	(1,0)	(1,0)	(1,0)	(1,0)	(1,0)	(1,0)	
L2C -54>	(1,24)	(50,1)	(48,1)	(2,2)	(53,1)	(1,0)	(1,0)	(1,0)	(1,0)	(1,0)	(1,0)	(1,0)	(1,0)	(1,0)	(1,0)	(1,0)	
L2C -53>	(36,1)	(12,1)	(49,1)	(1,21)	(40,1)	(3,6)	(2,16)	(-1,2)	(41,1)	(54,1)	(46,1)	(-2,1)	(1,0)	(1,0)	(1,0)	(1,0)	
L2C -52>	(56,1)	(1,13)	(2,1)	(-1,2)	(-3,1)	(4,1)	(35,1)	(51,1)	(53,2)	(39,1)	(1,0)	(1,0)	(1,0)	(1,0)	(1,0)	(1,0)	
L2C -51>	(-4,2)	(49,1)	(1,11)	(50,1)	(29,2)	(39,1)	(3,1)	(2,1)	(-2,1)	(1,0)	(1,0)	(1,0)	(1,0)	(1,0)	(1,0)	(1,0)	
L2C -50>	(2,4)	(-1,2)	(1,20)	(51,2)	(3,3)	(38,1)	(-2,1)	(4,1)	(7,1)	(28,1)	(1,0)	(1,0)	(1,0)	(1,0)	(1,0)	(1,0)	
L2C -49>	(43,2)	(48,2)	(1,24)	(40,1)	(-1,2)	(2,2)	(1,0)	(1,0)	(1,0)	(1,0)	(1,0)	(1,0)	(1,0)	(1,0)	(1,0)	(1,0)	
L2C -48>	(19,1)	(1,35)	(48,1)	(51,1)	(34,3)	(-2,1)	(41,1)	(15,2)	(2,2)	(29,1)	(26,1)	(45,1)	(22,1)	(1,0)	(1,0)	(1,0)	
L2C -47>	(1,31)	(47,1)	(48,1)	(-16,1)	(15,3)	(2,2)	(29,1)	(6,1)	(4,1)	(-10,1)	(43,1)	(1,0)	(1,0)	(1,0)	(1,0)	(1,0)	
L2C -46>	(47,4)	(1,56)	(-1,5)	(16,1)	(-17,3)	(33,1)	(5,1)	(-9,1)	(12,1)	(0,1)	(35,1)	(1,0)	(1,0)	(1,0)	(1,0)	(1,0)	
L2C -45>	(40,2)	(33,1)	(1,45)	(-1,1)	(46,2)	(41,1)	(45,1)	(34,2)	(3,2)	(7,1)	(6,1)	(12,3)	(-18,2)	(39,2)	(52,1)	(-10,1)	
L2C -44>	(-4,1)	(11,1)	(13,1)	(1,21)	(18,1)	(-19,2)	(49,2)	(40,1)	(8,1)	(-2,1)	(-3,1)	(45,1)	(-8,1)	(1,0)	(1,0)	(1,0)	
L2C -43>	(1,18)	(8,1)	(43,1)	(20,1)	(2,1)	(40,1)	(-20,1)	(11,1)	(21,1)	(25,1)	(41,1)	(55,1)	(-1,1)	(44,1)	(9,1)	(1,0)	
L2C -42>	(41,1)	(-5,1)	(1,28)	(43,3)	(-4,1)	(-3,1)	(-1,4)	(-8,1)	(3,1)	(61,1)	(44,1)	(39,1)	(-21,1)	(52,1)	(17,1)	(-2,1)	
L2C -41>	(43,2)	(1,27)	(2,2)	(11,1)	(-1,6)	(7,1)	(47,3)	(37,1)	(-22,2)	(15,1)	(40,1)	(3,1)	(21,1)	(9,1)	(-2,1)	(39,1)	
L2C -40>	(34,1)	(1,32)	(36,1)	(26,1)	(8,1)	(37,1)	(43,1)	(-23,2)	(33,2)	(-1,2)	(3,1)	(15,1)	(54,1)	(5,1)	(40,1)	(42,1)	
L2C -39>	(1,43)	(35,1)	(40,1)	(37,1)	(7,1)	(-1,9)	(25,1)	(-2,1)	(28,1)	(14,1)	(-24,2)	(6,1)	(1,0)	(1,0)	(1,0)	(1,0)	
L2C -38>	(-23,1)	(37,1)	(8,1)	(1,66)	(-1,12)	(-8,1)	(2,2)	(11,1)	(16,1)	(4,1)	(39,1)	(7,1)	(17,1)	(-25,2)	(21,1)	(9,1)	
L2C -37>	(1,34)	(34,1)	(5,1)	(32,1)	(12,2)	(38,1)	(2,5)	(7,3)	(4,1)	(20,1)	(13,2)	(8,5)	(19,1)	(9,1)	(6,2)	(-26,2)	
L2C -36>	(19,1)	(1,55)	(-1,4)	(34,1)	(20,1)	(5,1)	(55,1)	(6,2)	(33,1)	(-10,1)	(48,1)	(41,1)	(-2,1)	(-4,1)	(30,1)	(54,1)	
L2C -35>	(10,1)	(1,55)	(41,1)	(21,2)	(20,1)	(8,1)	(35,1)	(-28,3)	(-1,9)	(-3,2)	(11,1)	(25,1)	(2,4)	(3,2)	(-9,1)	(39,1)	
L2C -34>	(21,1)	(3,1)	(2,7)	(1,90)	(35,2)	(33,1)	(13,1)	(46,1)	(-29,3)	(29,1)	(30,1)	(5,2)	(-12,1)	(27,1)	(44,2)	(-9,1)	
L2C -33>	(29,3)	(4,1)	(1,52)	(2,1)	(33,1)	(-1,5)	(-9,1)	(25,1)	(5,1)	(-30,2)	(-7,1)	(13,1)	(28,1)	(8,1)	(35,1)	(48,1)	
L2C -32>	(3,1)	(27,1)	(-3,2)	(1,62)	(7,2)	(2,3)	(30,1)	(14,2)	(-1,2)	(-8,1)	(-2,2)	(4,1)	(26,2)	(-31,2)	(22,2)	(29,1)	
L2C -31>	(32,3)	(6,6)	(25,2)	(1,34)	(27,1)	(-5,1)	(33,1)	(7,1)	(-6,1)	(-8,1)	(2,1)	(45,1)	(3,2)	(-10,1)	(-11,1)	(10,3)	
L2C -30>	(27,1)	(26,3)	(1,51)	(3,2)	(36,1)	(25,1)	(20,1)	(19,1)	(10,2)	(-1,1)	(9,2)	(-33,2)	(15,1)	(-22,1)	(46,1)	(-2,1)	
L2C -29>	(1,53)	(3,1)	(48,1)	(24,2)	(-2,1)	(-23,1)	(15,1)	(-3,1)	(8,1)	(-8,1)	(11,1)	(25,1)	(2,3)	(23,1)	(30,2)	(5,2)	
L2C -28>	(1,49)	(7,1)	(-13,1)	(-6,1)	(29,2)	(4,2)	(28,1)	(12,1)	(5,1)	(-10,1)	(16,1)	(6,1)	(-4,1)	(31,2)	(8,2)	(3,1)	
L2C -27>	(-36,2)	(1,76)	(17,1)	(3,5)	(26,3)	(-2,2)	(42,1)	(24,1)	(28,1)	(-3,1)	(2,1)	(11,1)	(9,1)	(18,3)	(-1,2)	(5,3)	
L2C -26>	(1,116)	(-1,8)	(-37,2)	(3,3)	(9,1)	(26,2)	(33,1)	(19,1)	(12,1)	(28,2)	(29,1)	(6,2)	(-6,1)	(48,1)	(4,1)	(41,1)	
L2C -25>	(21,1)	(1,81)	(10,1)	(14,1)	(26,2)	(17,1)	(2,2)	(4,2)	(3,4)	(29,1)	(-13,1)	(-15,1)	(-27,1)	(27,1)	(-21,1)	(22,1)	
L2C -24>	(-39,2)	(45,2)	(1,38)	(-1,3)	(7,1)	(2,4)	(27,1)	(19,1)	(-4,1)	(8,1)	(-7,2)	(-3,1)	(4,1)	(-2,1)	(21,1)	(25,2)	
L2C -23>	(20,2)	(-40,2)	(1,71)	(-6,3)	(-1,2)	(24,1)	(-13,1)	(19,2)	(8,1)	(10,3)	(21,2)	(-36,1)	(-8,1)	(30,2)	(2,1)	(5,1)	
L2C -22>	(-41,1)	(-1,3)	(23,2)	(1,70)	(22,1)	(2,4)	(11,1)	(24,1)	(-12,2)	(-13,1)	(8,1)	(-15,1)	(15,1)	(6,2)	(17,1)	(16,2)	
L2C -21>	(2,8)	(-4,1)	(1,77)	(19,1)	(4,3)	(-8,1)	(-1,7)	(-24,1)	(23,1)	(17,2)	(9,1)	(-31,1)	(-15,1)	(-7,1)	(46,1)	(3,2)	
L2C -20>	(5,1)	(-1,5)	(1,76)	(22,1)	(32,1)	(20,1)	(33,1)	(18,2)	(6,1)	(14,1)	(15,1)	(4,1)	(3,3)	(28,1)	(10,1)	(21,2)	
L2C -19>	(-1,17)	(25,1)	(-12,2)	(38,2)	(28,1)	(23,1)	(1,96)	(-17,1)	(36,1)	(49,1)	(17,2)	(15,1)	(2,3)	(18,2)	(9,2)	(-4,2)	
L2C -18>	(1,80)	(19,1)	(-34,1)	(10,1)	(-11,2)	(-16,1)	(-2,2)	(18,1)	(2,6)	(11,1)	(0,1)	(4,1)	(5,3)	(-1,1)	(21,2)	(16,2)	
L2C -17>	(1,80)	(25,2)	(3,3)	(7,1)	(31,1)	(-1,12)	(-8,1)	(48,1)	(11,2)	(-18,1)	(4,1)	(15,2)	(21,1)	(18,2)	(2,3)	(30,1)	
L2C -16>	(-3,2)	(1,54)	(0,3)	(2,2)	(19,2)	(-2,6)	(-31,1)	(-37,1)	(16,4)	(-11,1)	(17,5)	(4,2)	(-36,1)	(14,2)	(10,3)	(45,1)	
L2C -15>	(3,2)	(26,1)	(-2,5)	(19,2)	(1,36)	(2,3)	(9,9)	(-1,9)	(28,1)	(-5,3)	(13,3)	(-24,1)	(16,6)	(-40,2)	(7,2)	(-3,1)	
L2C -14>	(31,2)	(16,1)	(13,1)	(19,1)	(1,51)	(-3,1)	(8,4)	(9,9)	(11,1)	(5,2)	(20,1)	(15,6)	(-5,1)	(27,2)	(-2,2)	(7,3)	
L2C -13>	(1,53)	(14,10)	(7,5)	(-11,2)	(6,3)	(-6,3)	(18,1)	(8,5)	(-4,2)	(-1,3)	(5,1)	(-12,1)	(9,4)	(21,1)	(23,1)	(16,2)	
L2C -12>	(4,4)	(11,7)	(1,43)	(-2,2)	(21,2)	(2,1)	(17,2)	(45,1)	(25,1)	(-5,5)	(13,5)	(-6,3)	(-10,1)	(5,1)	(-7,2)	(-8,1)	
L2C -11>	(-7,5)	(2,6)	(-1,4)	(22,1)	(31,1)	(1,26)	(3,2)	(-2,2)	(14,1)	(9,4)	(21,3)	(8,4)	(4,3)	(20,3)	(10,2)	(12,6)	
L2C -10>	(1,48)	(12,3)	(-1,9)	(2,8)	(3,6)	(-5,2)	(-33,1)	(-2,3)	(11,11)	(39,2)	(-6,3)	(41,1)	(-36,1)	(9,1)	(40,2)	(48,1)	
L2C -9>	(4,6)	(-2,4)	(10,12)	(2,7)	(1,37)	(-1,7)	(6,5)	(5,10)	(-14,1)	(41,1)	(-34,1)	(14,2)	(-8,3)	(-5,1)	(11,4)	(3,3)	
L2C -8>	(2,10)	(-27,1)	(1,59)	(-11,1)	(4,6)	(46,1)	(20,1)	(16,1)	(9,18)	(34,1)	(-1,12)	(-4,2)	(-25,1)	(28,1)	(12,1)	(-5,2)	
L2C -7>	(-1,15)	(1,63)	(-5,3)	(8,11)	(6,4)	(12,2)	(-2,7)	(3,4)	(2,20)	(9,4)	(4,8)	(5,6)	(-23,2)	(-6,3)	(-38,1)	(-11,1)	
L2C -6>	(-5,3)	(9,4)	(0,3)	(-1,24)	(4,4)	(1,69)	(8,3)	(-31,1)	(3,7)	(44,1)	(7,20)	(43,1)	(2,11)	(12,4)	(26,2)	(-2,5)	
L2C -5>	(1,86)	(-31,2)	(-17,2)	(-1,18)	(6,46)	(-2,5)	(-27,2)	(4,12)	(-37,1)	(-13,2)	(-6,2)	(2,13)	(3,6)	(8,3)	(0,25)	(-20,1)	
L2C -4>	(2,27)	(0,8)	(1,96)	(4,4)	(-4,4)	(6,26)	(-1,12)	(19,3)	(3,19)	(9,2)	(-23,1)	(33,2)	(-45,1)	(-2,14)	(34,1)	(5,17)	
L2C -3>	(2,69)	(1,93)	(-36,3)	(9,5)	(-5,2)	(-1,39)	(17,2)	(4,43)	(-4,5)	(5,13)	(8,2)	(-2,19)	(6,4)	(0,1)	(-35,2)	(-27,1)	
L2C -2>	(-3,12)	(4,20)	(3,66)	(1,113)	(-1,41)	(-5,6)	(2,11)	(0,6)	(6,8)	(8,6)	(13,5)	(5,17)	(41,1)	(-2,6)	(-4,4)	(18,2)	
L2C -1>	(9,6)	(2,229)	(4,26)	(6,7)	(-1,66)	(3,51)	(0,12)	(5,8)	(-17,1)	(-2,9)	(-4,8)	(1,42)	(-7,5)	(-12,1)	(11,3)	(7,4)	
L2C 0>	(16,5)	(0,211)	(2,2)	(3,2)	(1,72)	(-3,3)	(-35,1)	(-2,6)	(-33,1)	(-1,20)	(12,2)	(-13,1)	(-10,1)	(-12,3)	(-11,2)	(17,2)	
L2C 1>	(1,235)	(-62,1)	(5,0)	(-18,0)	(-21,0)	(-53,1)	(-31,0)	(-30,0)	(30,0)	(9,0)	(-41,0)	(-34,0)	(22,0)	(2,3)	(-35,0)	(-63,0)	
L2C 2>	(2,34)	(1,245)	(-5,5)	(3,5)	(-1,74)	(17,1)	(12,2)	(-3,10)	(4,6)	(-14,1)	(10,1)	(20,1)	(-4,11)	(5,3)	(-26,1)	(-24,1)	
L2C 3>	(1,212)	(-4,27)	(-2,20)	(-1,79)	(2,30)	(0,2)	(-19,1)	(3,5)	(-15,1)	(-34,1)	(5,3)	(-21,1)	(10,1)	(-5,11)	(12,2)	(-26,1)	
L2C 4>	(-2,31)	(1,214)	(-5,3)	(-1,57)	(6,2)	(-3,54)	(8,1)	(11,6)	(-8,5)	(2,4)	(3,8)	(-11,1)	(-23,2)	(32,1)	(23,1)	(40,1)	
L2C 5>	(1,160)	(-6,6)	(5,3)	(2,14)	(-3,46)	(3,6)	(-1,16)	(-4,8)	(10,1)	(-7,7)	(-2,9)	(-20,1)	(-16,1)	(-9,4)	(4,3)	(-32,1)	
L2C 6>	(1,128)	(-1,18)	(2,6)	(3,2)	(-9,3)	(-4,2)	(20,2)	(-8,2)	(-7,4)	(-5,2)	(11,1)	(-61,1)	(-2,9)	(12,3)	(-3,34)	(30,1)	
L2C 7>	(-11,2)	(1,114)	(-49,1)	(4,6)	(-21,1)	(-1,12)	(22,2)	(25,1)	(-34,1)	(-2,2)	(-8,3)	(-4,2)	(-6,4)	(-33,1)	(-16,1)	(7,3)	
L2C 8>	(1,89)	(8,3)	(-1,8)	(-9,3)	(2,7)	(-4,1)	(-46,1)	(11,1)	(-6,2)	(5,1)	(12,1)	(6,1)	(18,1)	(-7,6)	(-2,2)	(-5,3)	
L2C 9>	(1,99)	(8,1)	(4,3)	(-1,25)	(2,7)	(30,2)	(-3,2)	(-5,4)	(-2,4)	(-21,1)	(-8,18)	(-4,2)	(6,2)	(-7,5)	(-27,1)	(3,1)	
L2C 10>	(-15,3)	(-11,5)	(1,60)	(18,2)	(-1,8)	(-4,1)	(2,8)	(-31,1)	(3,2)	(-45,1)	(-9,3)	(-50,1)	(19,1)	(11,3)	(-6,1)	(5,3)	
L2C 11>	(-19,2)	(-1,9)	(1,60)	(4,2)	(-13,4)	(-10,11)	(24,1)	(-20,3)	(-12,10)	(2,2)	(-17,1)	(-2,1)	(19,2)	(-16,4)	(-5,1)	(-33,1)	
L2C 12>	(-13,4)	(1,50)	(-1,10)	(0,1)	(-4,2)	(4,1)	(2,4)	(-37,2)	(-36,1)	(-47,1)	(-2,1)	(-8,2)	(5,3)	(-17,2)	(-54,1)	(-7,3)	
L2C 13>	(1,34)	(-12,1)	(-1,4)	(-51,1)	(2,4)	(-46,1)	(-14,1)	(7,1)	(-48,1)	(-16,4)	(-7,2)	(-17,2)	(0,2)	(15,2)	(-23,2)	(-3,2)	
L2C 14>	(19,2)	(-19,2)	(-27,1)	(0,2)	(-12,3)	(1,37)	(-1,8)	(3,2)	(-10,3)	(-36,1)	(-9,2)	(-2,3)	(-18,1)	(-51,1)	(-15,1)	(-11,2)	
L2C 15>	(2,1)	(1,37)	(19,1)	(-3,1)	(13,1)	(-7,2)	(-16,5)	(-22,1)	(29,1)	(7,2)	(-49,1)	(-11,1)	(-6,1)	(-9,1)	(-10,1)	(28,1)	
L2C 16>	(-18,2)	(-16,5)	(-5,1)	(1,36)	(6,1)	(2,4)	(-10,2)	(15,1)	(3,1)	(11,1)	(-13,2)	(4,1)	(5,2)	(18,1)	(-1,3)	(-15,5)	
L2C 17>	(1,37)	(-10,1)	(-41,1)	(-16,7)	(4,2)	(9,2)	(-9,1)	(2,1)	(-11,2)	(-12,1)	(-15,1)	(5,3)	(32,1)	(-23,1)	(-27,2)	(-24,1)	
L2C 18>	(1,24)	(16,1)	(-1,1)	(-30,1)	(-33,1)	(-43,1)	(-58,2)	(-15,1)	(-18,2)	(-12,1)	(-21,1)	(-51,1)	(-14,1)	(-10,1)	(-48,1)	(2,2)	
L2C 19>	(-17,3)	(1,32)	(-2,1)	(3,2)	(-20,1)	(25,1)	(-8,1)	(-34,1)	(-10,1)	(24,1)	(9,1)	(-16,2)	(-4,2)	(-1,4)	(-14,2)	(-15,3)	
L2C 20>	(-10,1)	(-17,2)	(-3,3)	(1,27)	(-8,2)	(2,2)	(-19,1)	(-26,1)	(-14,1)	(-33,1)	(10,1)	(3,2)	(-36,1)	(-37,1)	(-1,2)	(-7,1)	
L2C 21>	(-42,1)	(7,1)	(-1,3)	(1,20)	(3,3)	(-14,1)	(-33,2)	(14,2)	(2,6)	(-4,3)	(-5,1)	(-30,1)	(-6,1)	(-11,2)	(-8,2)	(-13,1)	
L2C 22>	(1,14)	(-15,1)	(7,1)	(-21,6)	(-6,1)	(11,1)	(26,1)	(-58,1)	(-3,1)	(3,1)	(-16,1)	(-32,1)	(2,1)	(12,1)	(-1,1)	(-37,2)	
L2C 23>	(1,10)	(-22,1)	(-5,3)	(-32,1)	(-7,1)	(-31,1)	(-1,3)	(4,1)	(-42,1)	(-41,1)	(-25,2)	(-10,1)	(-13,1)	(2,1)	(-17,1)	(-40,1)	
L2C 24>	(-13,1)	(2,1)	(1,12)	(-23,4)	(-1,2)	(-4,1)	(-56,1)	(-12,1)	(-33,1)	(1,0)	(1,0)	(1,0)	(1,0)	(1,0)	(1,0)	(1,0)	
L2C 25>	(-35,1)	(-46,1)	(-3,1)	(-6,1)	(18,1)	(-11,1)	(1,11)	(3,1)	(-26,2)	(2,2)	(-21,1)	(-38,1)	(4,1)	(-9,1)	(1,0)	(1,0)	
L2C 26>	(1,12)	(-5,1)	(6,1)	(2,3)	(-1,2)	(-25,6)	(-22,1)	(27,1)	(-17,2)	(20,1)	(-34,1)	(-6,1)	(-24,2)	(-7,1)	(-26,4)	(4,1)	
L2C 27>	(-17,1)	(1,13)	(2,4)	(-4,1)	(-33,1)	(-25,1)	(-19,2)	(18,1)	(-26,1)	(-52,1)	(-37,2)	(-43,1)	(-29,4)	(-8,1)	(6,1)	(-15,1)	
L2C 28>	(-22,1)	(-27,4)	(1,12)	(-18,2)	(2,2)	(4,1)	(-20,1)	(-43,1)	(-36,1)	(-1,1)	(-10,1)	(-48,1)	(1,0)	(1,0)	(1,0)	(1,0)	
L2C 29>	(-31,2)	(1,12)	(-52,1)	(14,1)	(-28,2)	(2,2)	(-13,1)	(-41,1)	(-35,1)	(11,1)	(-16,1)	(19,1)	(20,1)	(-53,1)	(-44,1)	(1,0)	
L2C 30>	(-2,2)	(1,12)	(-1,2)	(-8,1)	(-3,1)	(-32,1)	(-21,1)	(-29,1)	(-9,1)	(-24,2)	(6,1)	(-27,1)	(-19,1)	(10,1)	(2,1)	(-31,1)	
L2C 31>	(3,1)	(7,1)	(1,9)	(-17,1)	(-1,1)	(-35,1)	(-26,1)	(-24,1)	(-28,2)	(12,2)	(-30,1)	(-16,1)	(-18,1)	(-7,1)	(1,0)	(1,0)	
L2C 32>	(-42,1)	(-18,1)	(14,2)	(-17,1)	(-31,3)	(1,2)	(-40,1)	(-35,1)	(-28,1)	(2,1)	(-1,2)	(-23,1)	(-27,2)	(-50,1)	(9,1)	(11,1)	
L2C 33>	(1,5)	(-1,6)	(-32,5)	(14,1)	(9,1)	(-2,1)	(8,1)	(-22,1)	(-38,1)	(10,1)	(13,1)	(0,1)	(-27,1)	(17,1)	(-12,1)	(1,0)	
L2C 34>	(1,10)	(-31,1)	(-28,1)	(-6,1)	(-33,3)	(18,1)	(-42,2)	(-10,1)	(-16,1)	(-1,3)	(8,1)	(12,1)	(-36,1)	(4,1)	(-24,1)	(1,0)	
L2C 35>	(-34,5)	(-26,1)	(3,3)	(1,4)	(-32,1)	(-5,1)	(-27,1)	(-38,1)	(-46,1)	(-14,1)	(9,1)	(-22,1)	(-21,1)	(1,0)	(1,0)	(1,0)	
L2C 36>	(-13,1)	(-50,1)	(-2,1)	(-29,1)	(-42,1)	(19,1)	(1,3)	(-35,3)	(-24,1)	(-1,1)	(1,0)	(1,0)	(1,0)	(1,0)	(1,0)	(1,0)	
L2C 37>	(-39,1)	(-36,3)	(1,3)	(17,1)	(-26,1)	(7,1)	(1,0)	(1,0)	(1,0)	(1,0)	(1,0)	(1,0)	(1,0)	(1,0)	(1,0)	(1,0)	
L2C 38>	(-2,1)	(1,4)	(13,1)	(16,1)	(2,1)	(-37,1)	(-36,1)	(3,1)	(10,1)	(-41,1)	(-46,2)	(-40,2)	(-30,1)	(1,0)	(1,0)	(1,0)	
L2C 39>	(-22,1)	(-27,1)	(2,1)	(1,5)	(-19,1)	(-38,1)	(-42,1)	(-1,1)	(-25,1)	(-4,1)	(-34,2)	(1,0)	(1,0)	(1,0)	(1,0)	(1,0)	
L2C 40>	(2,3)	(-39,2)	(-28,1)	(-2,1)	(-46,1)	(-38,4)	(-31,1)	(-6,1)	(1,4)	(-3,1)	(-1,2)	(-42,1)	(10,2)	(11,1)	(-4,1)	(-35,1)	
L2C 41>	(-16,1)	(-40,1)	(-13,1)	(-18,2)	(2,1)	(-20,1)	(-36,1)	(-19,2)	(-22,1)	(1,5)	(-29,1)	(-33,1)	(-42,1)	(-1,4)	(-35,1)	(1,0)	
L2C 42>	(-10,1)	(1,4)	(-3,1)	(-38,1)	(6,1)	(7,1)	(-49,1)	(-37,1)	(-36,1)	(-9,1)	(-35,1)	(11,1)	(-7,1)	(-1,1)	(1,0)	(1,0)	
L2C 43>	(2,3)	(-44,2)	(-1,3)	(-11,1)	(-42,1)	(4,1)	(-31,1)	(3,3)	(-29,1)	(-2,1)	(-4,1)	(-25,1)	(-12,1)	(13,1)	(9,1)	(1,4)	
L2C 44>	(-38,1)	(1,7)	(-16,2)	(-31,1)	(-15,1)	(-34,1)	(-3,1)	(-10,1)	(-5,1)	(-41,1)	(-13,1)	(2,1)	(-39,1)	(-50,1)	(1,0)	(1,0)	
L2C 45>	(1,7)	(-44,1)	(-8,1)	(-48,1)	(-25,1)	(-13,1)	(-31,1)	(-27,1)	(-50,1)	(4,1)	(8,1)	(-14,1)	(1,0)	(1,0)	(1,0)	(1,0)	
L2C 46>	(-26,1)	(-28,1)	(-39,1)	(-10,1)	(1,6)	(-44,1)	(-33,1)	(-13,1)	(-31,1)	(-45,1)	(-24,1)	(-2,1)	(-9,1)	(-3,1)	(2,1)	(1,0)	
L2C 47>	(1,10)	(-46,4)	(-4,1)	(-5,2)	(-10,1)	(-50,2)	(-24,1)	(-6,1)	(-55,1)	(1,0)	(1,0)	(1,0)	(1,0)	(1,0)	(1,0)	(1,0)	
L2C 48>	(-46,1)	(-47,1)	(-16,1)	(1,4)	(3,1)	(-20,1)	(-1,1)	(-39,1)	(-21,1)	(1,0)	(1,0)	(1,0)	(1,0)	(1,0)	(1,0)	(1,0)	
L2C 49>	(1,3)	(-45,1)	(-27,1)	(-48,3)	(-8,1)	(-51,1)	(-31,1)	(2,1)	(1,0)	(1,0)	(1,0)	(1,0)	(1,0)	(1,0)	(1,0)	(1,0)	
L2C 50>	(-53,1)	(-1,1)	(-4,1)	(-46,1)	(-29,1)	(1,1)	(-31,1)	(1,0)	(1,0)	(1,0)	(1,0)	(1,0)	(1,0)	(1,0)	(1,0)	(1,0)	
L2C 51>	(-41,1)	(-17,1)	(-53,1)	(-48,1)	(-2,2)	(1,5)	(-16,1)	(-6,1)	(-54,1)	(-52,1)	(1,0)	(1,0)	(1,0)	(1,0)	(1,0)	(1,0)	
L2C 52>	(1,2)	(-1,1)	(-37,1)	(-6,1)	(-4,1)	(1,0)	(1,0)	(1,0)	(1,0)	(1,0)	(1,0)	(1,0)	(1,0)	(1,0)	(1,0)	(1,0)	
L2C 53>	(-10,1)	(1,4)	(-22,1)	(1,0)	(1,0)	(1,0)	(1,0)	(1,0)	(1,0)	(1,0)	(1,0)	(1,0)	(1,0)	(1,0)	(1,0)	(1,0)	
L2C 54>	(-14,1)	(-48,1)	(1,1)	(-47,1)	(1,0)	(1,0)	(1,0)	(1,0)	(1,0)	(1,0)	(1,0)	(1,0)	(1,0)	(1,0)	(1,0)	(1,0)	
L2C 55>	(-24,1)	(-56,1)	(-49,1)	(-13,1)	(1,2)	(1,0)	(1,0)	(1,0)	(1,0)	(1,0)	(1,0)	(1,0)	(1,0)	(1,0)	(1,0)	(1,0)	
L2C 56>	(-39,1)	(1,4)	(1,0)	(1,0)	(1,0)	(1,0)	(1,0)	(1,0)	(1,0)	(1,0)	(1,0)	(1,0)	(1,0)	(1,0)	(1,0)	(1,0)	
L2C 57>	(1,0)	(1,0)	(1,0)	(1,0)	(1,0)	(1,0)	(1,0)	(1,0)	(1,0)	(1,0)	(1,0)	(1,0)	(1,0)	(1,0)	(1,0)	(1,0)	
L2C 58>	(1,0)	(1,0)	(1,0)	(1,0)	(1,0)	(1,0)	(1,0)	(1,0)	(1,0)	(1,0)	(1,0)	(1,0)	(1,0)	(1,0)	(1,0)	(1,0)	
L2C 59>	(1,0)	(1,0)	(1,0)	(1,0)	(1,0)	(1,0)	(1,0)	(1,0)	(1,0)	(1,0)	(1,0)	(1,0)	(1,0)	(1,0)	(1,0)	(1,0)	
L2C 60>	(1,0)	(1,0)	(1,0)	(1,0)	(1,0)	(1,0)	(1,0)	(1,0)	(1,0)	(1,0)	(1,0)	(1,0)	(1,0)	(1,0)	(1,0)	(1,0)	
L2C 61>	(-21,1)	(1,0)	(1,0)	(1,0)	(1,0)	(1,0)	(1,0)	(1,0)	(1,0)	(1,0)	(1,0)	(1,0)	(1,0)	(1,0)	(1,0)	(1,0)	
L2C 62>	(1,0)	(1,0)	(1,0)	(1,0)	(1,0)	(1,0)	(1,0)	(1,0)	(1,0)	(1,0)	(1,0)	(1,0)	(1,0)	(1,0)	(1,0)	(1,0)	
L2C 63>	(1,0)	(1,0)	(1,0)	(1,0)	(1,0)	(1,0)	(1,0)	(1,0)	(1,0)	(1,0)	(1,0)	(1,0)	(1,0)	(1,0)	(1,0)	(1,0)	

DRAM Statistics
 CHANNEL 0
 RQ ROW_BUFFER_HIT:       5080  ROW_BUFFER_MISS:        845
 DBUS_CONGESTED:       3076
 WQ ROW_BUFFER_HIT:          0  ROW_BUFFER_MISS:          0  FULL:          0

 AVG_CONGESTED_CYCLE: 6
