
*** ChampSim Multicore Out-of-Order Simulator ***

Warmup Instructions: 1000000
Simulation Instructions: 10000000
Number of CPUs: 1
LLC sets: 2048
LLC ways: 16
Off-chip DRAM Size: 4096 MB Channels: 1 Width: 64-bit Data Rate: 3200 MT/s

CPU 0 runs /home/virtualcse/Data-Prefetching/ChampSim/dpc3_traces/644.nab_s-9322B.champsimtrace.xz
Ultra pref. initializing...
Ultra pref. initialized
Ultra pref. initializing...
Ultra pref. initialized

Warmup complete CPU 0 instructions: 1000001 cycles: 380783 (Simulation time: 0 hr 0 min 2 sec) 

Heartbeat CPU 0 instructions: 10000001 cycles: 6423845 heartbeat IPC: 1.5567 cumulative IPC: 1.48931 (Simulation time: 0 hr 0 min 17 sec) 
Finished CPU 0 instructions: 10000000 cycles: 6706512 cumulative IPC: 1.49109 (Simulation time: 0 hr 0 min 19 sec) 

CPU 0 Branch Prediction Accuracy: 98.16% MPKI: 2.311 Average ROB Occupancy at Mispredict: 69.481

ChampSim completed all CPUs

Region of Interest Statistics

CPU 0 cumulative IPC: 1.49109 instructions: 10000000 cycles: 6706512
L1D TOTAL     ACCESS:    6726573  HIT:    6614855  MISS:     111718
L1D LOAD      ACCESS:    2601685  HIT:    2585007  MISS:      16678
L1D RFO       ACCESS:     172308  HIT:     172241  MISS:         67
L1D PREFETCH  ACCESS:    3952580  HIT:    3857607  MISS:      94973
L1D WRITEBACK ACCESS:          0  HIT:          0  MISS:          0
L1D PREFETCH  REQUESTED:   62721600  ISSUED:   36080475  USEFUL:      78566  USELESS:      26070
L1D AVERAGE MISS LATENCY: 17.9086 cycles
L1I TOTAL     ACCESS:    1454888  HIT:    1454864  MISS:         24
L1I LOAD      ACCESS:    1454888  HIT:    1454864  MISS:         24
L1I RFO       ACCESS:          0  HIT:          0  MISS:          0
L1I PREFETCH  ACCESS:          0  HIT:          0  MISS:          0
L1I WRITEBACK ACCESS:          0  HIT:          0  MISS:          0
L1I PREFETCH  REQUESTED:          0  ISSUED:          0  USEFUL:          0  USELESS:          0
L1I AVERAGE MISS LATENCY: 13 cycles
L2C TOTAL     ACCESS:     861836  HIT:     853124  MISS:       8712
L2C LOAD      ACCESS:      16564  HIT:      16241  MISS:        323
L2C RFO       ACCESS:         67  HIT:         59  MISS:          8
L2C PREFETCH  ACCESS:     845139  HIT:     836758  MISS:       8381
L2C WRITEBACK ACCESS:         66  HIT:         66  MISS:          0
L2C PREFETCH  REQUESTED:    2061040  ISSUED:    1343233  USEFUL:       1429  USELESS:       4119
L2C AVERAGE MISS LATENCY: 135.472 cycles
LLC TOTAL     ACCESS:       8714  HIT:        234  MISS:       8480
LLC LOAD      ACCESS:        322  HIT:         24  MISS:        298
LLC RFO       ACCESS:          8  HIT:          0  MISS:          8
LLC PREFETCH  ACCESS:       8382  HIT:        208  MISS:       8174
LLC WRITEBACK ACCESS:          2  HIT:          2  MISS:          0
LLC PREFETCH  REQUESTED:          0  ISSUED:          0  USEFUL:         15  USELESS:          0
LLC AVERAGE MISS LATENCY: 108.166 cycles
Major fault: 0 Minor fault: 294

L1D -512>	(-4,1)	(-3,1)	(-1,3)	(0,120)	(-2,1)	(-16,1)	(1,31)	(-352,0)	(-118,0)	(28,0)	(2,5)	(40,1)	(22,2)	(3,3)	(-406,0)	(25,1)	
L1D -511>	(1,80)	(22,6)	(2,26)	(0,4)	(3,5)	(8,12)	(7,2)	(9,1)	(1,0)	(1,0)	(1,0)	(1,0)	(1,0)	(1,0)	(1,0)	(1,0)	
L1D -510>	(3,15)	(2,5)	(510,1)	(491,1)	(482,1)	(5,1)	(8,1)	(7,2)	(4,3)	(1,0)	(1,0)	(1,0)	(1,0)	(1,0)	(1,0)	(1,0)	
L1D -509>	(1,9)	(3,25)	(-1,3)	(2,21)	(6,3)	(290,1)	(1,0)	(1,0)	(1,0)	(1,0)	(1,0)	(1,0)	(1,0)	(1,0)	(1,0)	(1,0)	
L1D -508>	(1,7)	(-2,13)	(498,1)	(6,2)	(5,1)	(378,1)	(327,1)	(433,1)	(490,1)	(488,1)	(3,3)	(2,1)	(1,0)	(1,0)	(1,0)	(1,0)	
L1D -507>	(2,2)	(414,1)	(1,6)	(4,2)	(8,1)	(307,1)	(403,1)	(504,1)	(415,1)	(1,0)	(1,0)	(1,0)	(1,0)	(1,0)	(1,0)	(1,0)	
L1D -506>	(1,4)	(2,5)	(-2,1)	(498,1)	(487,1)	(6,1)	(502,1)	(340,1)	(3,1)	(1,0)	(1,0)	(1,0)	(1,0)	(1,0)	(1,0)	(1,0)	
L1D -505>	(1,9)	(385,1)	(-2,1)	(90,1)	(2,2)	(1,0)	(1,0)	(1,0)	(1,0)	(1,0)	(1,0)	(1,0)	(1,0)	(1,0)	(1,0)	(1,0)	
L1D -504>	(1,4)	(482,1)	(230,1)	(505,1)	(467,1)	(502,1)	(484,1)	(486,1)	(1,0)	(1,0)	(1,0)	(1,0)	(1,0)	(1,0)	(1,0)	(1,0)	
L1D -503>	(476,1)	(455,2)	(480,1)	(308,1)	(264,1)	(1,6)	(96,1)	(2,2)	(1,0)	(1,0)	(1,0)	(1,0)	(1,0)	(1,0)	(1,0)	(1,0)	
L1D -502>	(488,1)	(1,5)	(78,1)	(-2,12)	(490,1)	(477,1)	(482,1)	(494,1)	(2,2)	(492,3)	(98,1)	(88,1)	(371,1)	(496,1)	(464,1)	(226,1)	
L1D -501>	(483,1)	(1,2)	(339,1)	(492,1)	(1,0)	(1,0)	(1,0)	(1,0)	(1,0)	(1,0)	(1,0)	(1,0)	(1,0)	(1,0)	(1,0)	(1,0)	
L1D -500>	(1,9)	(296,1)	(2,5)	(332,1)	(486,1)	(466,1)	(498,1)	(304,1)	(190,1)	(496,1)	(415,1)	(274,1)	(482,1)	(1,0)	(1,0)	(1,0)	
L1D -499>	(1,4)	(432,1)	(3,1)	(-2,4)	(2,4)	(316,1)	(440,1)	(389,1)	(285,1)	(375,1)	(496,1)	(466,1)	(1,0)	(1,0)	(1,0)	(1,0)	
L1D -498>	(1,20)	(5,1)	(492,1)	(474,1)	(186,1)	(2,6)	(281,1)	(496,1)	(494,1)	(442,1)	(470,1)	(490,2)	(499,1)	(480,1)	(476,1)	(4,1)	
L1D -497>	(1,4)	(351,1)	(343,1)	(386,1)	(292,1)	(284,1)	(3,3)	(383,1)	(312,1)	(1,0)	(1,0)	(1,0)	(1,0)	(1,0)	(1,0)	(1,0)	
L1D -496>	(224,1)	(511,1)	(1,21)	(2,9)	(492,1)	(494,1)	(486,1)	(496,1)	(508,1)	(406,1)	(480,1)	(478,1)	(500,1)	(3,3)	(408,1)	(180,1)	
L1D -495>	(1,3)	(378,1)	(68,1)	(498,1)	(423,1)	(2,2)	(1,0)	(1,0)	(1,0)	(1,0)	(1,0)	(1,0)	(1,0)	(1,0)	(1,0)	(1,0)	
L1D -494>	(492,3)	(478,3)	(482,2)	(498,1)	(488,2)	(476,1)	(340,1)	(466,1)	(504,1)	(474,1)	(483,1)	(128,1)	(30,1)	(500,2)	(496,1)	(140,1)	
L1D -493>	(252,1)	(1,3)	(281,1)	(479,1)	(309,1)	(1,0)	(1,0)	(1,0)	(1,0)	(1,0)	(1,0)	(1,0)	(1,0)	(1,0)	(1,0)	(1,0)	
L1D -492>	(486,1)	(494,3)	(50,1)	(506,1)	(88,1)	(496,2)	(488,2)	(378,1)	(478,1)	(474,1)	(466,1)	(484,1)	(5,1)	(266,1)	(500,1)	(502,2)	
L1D -491>	(1,5)	(3,1)	(2,3)	(464,1)	(500,1)	(280,1)	(277,1)	(4,1)	(1,0)	(1,0)	(1,0)	(1,0)	(1,0)	(1,0)	(1,0)	(1,0)	
L1D -490>	(491,1)	(482,1)	(468,2)	(500,1)	(3,2)	(484,1)	(474,2)	(480,2)	(124,1)	(492,3)	(486,2)	(472,2)	(110,1)	(4,1)	(44,1)	(494,1)	
L1D -489>	(1,7)	(468,1)	(2,2)	(30,1)	(389,1)	(314,1)	(469,1)	(134,1)	(476,1)	(428,1)	(4,3)	(3,1)	(1,0)	(1,0)	(1,0)	(1,0)	
L1D -488>	(474,3)	(2,1)	(482,2)	(489,2)	(478,1)	(492,3)	(472,1)	(496,1)	(202,1)	(468,1)	(150,1)	(391,1)	(470,2)	(490,1)	(84,1)	(498,1)	
L1D -487>	(482,1)	(410,1)	(1,9)	(403,1)	(484,1)	(2,2)	(337,1)	(-2,1)	(66,1)	(488,1)	(447,1)	(-1,2)	(126,1)	(289,1)	(1,0)	(1,0)	
L1D -486>	(448,1)	(466,2)	(480,1)	(490,5)	(122,1)	(486,3)	(492,2)	(498,2)	(478,3)	(447,1)	(468,1)	(294,1)	(472,2)	(311,1)	(248,1)	(66,1)	
L1D -485>	(1,9)	(484,1)	(-1,2)	(429,1)	(3,6)	(2,7)	(4,1)	(362,1)	(6,1)	(1,0)	(1,0)	(1,0)	(1,0)	(1,0)	(1,0)	(1,0)	
L1D -484>	(52,1)	(486,1)	(26,1)	(-4,1)	(466,1)	(1,1)	(359,1)	(454,1)	(490,1)	(492,3)	(64,1)	(474,4)	(452,1)	(80,1)	(488,1)	(478,4)	
L1D -483>	(1,4)	(404,1)	(488,1)	(2,2)	(461,1)	(108,1)	(425,1)	(42,1)	(457,1)	(316,1)	(5,1)	(1,0)	(1,0)	(1,0)	(1,0)	(1,0)	
L1D -482>	(494,1)	(373,1)	(470,3)	(464,1)	(484,3)	(476,1)	(392,1)	(488,1)	(456,1)	(172,1)	(508,1)	(1,2)	(482,5)	(490,3)	(480,4)	(472,1)	
L1D -481>	(1,12)	(349,1)	(468,1)	(482,1)	(315,1)	(-2,1)	(94,1)	(1,0)	(1,0)	(1,0)	(1,0)	(1,0)	(1,0)	(1,0)	(1,0)	(1,0)	
L1D -480>	(1,5)	(52,2)	(472,6)	(342,1)	(4,2)	(474,3)	(496,2)	(504,1)	(435,1)	(466,1)	(401,1)	(468,1)	(462,2)	(478,2)	(481,1)	(92,1)	
L1D -479>	(1,22)	(3,1)	(511,1)	(318,1)	(364,1)	(2,3)	(480,1)	(436,1)	(470,1)	(353,1)	(1,0)	(1,0)	(1,0)	(1,0)	(1,0)	(1,0)	
L1D -478>	(1,3)	(-8,1)	(468,1)	(488,4)	(476,2)	(478,2)	(480,4)	(8,1)	(458,2)	(152,1)	(452,1)	(492,1)	(484,2)	(482,2)	(486,2)	(506,1)	
L1D -477>	(429,1)	(1,7)	(132,1)	(474,1)	(468,1)	(478,2)	(470,1)	(486,1)	(503,1)	(450,1)	(1,0)	(1,0)	(1,0)	(1,0)	(1,0)	(1,0)	
L1D -476>	(1,3)	(332,1)	(494,3)	(82,1)	(477,2)	(486,1)	(478,1)	(460,1)	(158,1)	(482,2)	(324,1)	(490,1)	(474,2)	(476,2)	(464,1)	(472,2)	
L1D -475>	(448,1)	(1,3)	(423,1)	(336,1)	(476,2)	(469,1)	(488,1)	(2,4)	(141,1)	(1,0)	(1,0)	(1,0)	(1,0)	(1,0)	(1,0)	(1,0)	
L1D -474>	(1,5)	(480,3)	(478,2)	(468,3)	(116,1)	(466,4)	(372,1)	(486,1)	(456,3)	(16,2)	(198,1)	(34,1)	(484,2)	(474,4)	(458,1)	(326,1)	
L1D -473>	(202,1)	(1,7)	(478,1)	(3,3)	(404,1)	(236,1)	(444,1)	(482,1)	(370,1)	(502,1)	(276,1)	(336,2)	(1,0)	(1,0)	(1,0)	(1,0)	
L1D -472>	(478,2)	(2,2)	(468,4)	(492,1)	(474,3)	(448,3)	(482,3)	(464,2)	(398,1)	(46,2)	(473,2)	(458,1)	(202,1)	(490,1)	(472,4)	(230,1)	
L1D -471>	(1,10)	(2,4)	(142,1)	(280,1)	(474,1)	(419,1)	(446,1)	(3,1)	(410,1)	(440,1)	(460,1)	(1,0)	(1,0)	(1,0)	(1,0)	(1,0)	
L1D -470>	(474,3)	(480,2)	(462,1)	(452,1)	(488,3)	(-28,1)	(256,1)	(464,3)	(470,3)	(496,3)	(2,2)	(62,1)	(114,1)	(468,2)	(472,2)	(454,2)	
L1D -469>	(1,34)	(452,1)	(466,1)	(282,1)	(3,4)	(2,5)	(436,1)	(484,1)	(459,1)	(1,0)	(1,0)	(1,0)	(1,0)	(1,0)	(1,0)	(1,0)	
L1D -468>	(1,5)	(2,4)	(-6,1)	(458,4)	(470,1)	(438,1)	(478,5)	(297,1)	(452,1)	(476,2)	(466,3)	(448,3)	(468,2)	(450,1)	(444,1)	(180,1)	
L1D -467>	(1,9)	(475,1)	(323,1)	(-4,1)	(366,1)	(472,1)	(355,1)	(1,0)	(1,0)	(1,0)	(1,0)	(1,0)	(1,0)	(1,0)	(1,0)	(1,0)	
L1D -466>	(1,16)	(470,3)	(448,3)	(480,3)	(2,3)	(450,1)	(476,2)	(466,2)	(474,2)	(446,2)	(86,1)	(478,1)	(454,2)	(366,1)	(460,3)	(284,1)	
L1D -465>	(464,2)	(423,1)	(1,3)	(156,1)	(460,1)	(348,1)	(476,1)	(499,1)	(90,1)	(454,2)	(451,1)	(456,1)	(494,1)	(1,0)	(1,0)	(1,0)	
L1D -464>	(465,1)	(452,3)	(470,5)	(446,1)	(450,1)	(490,1)	(456,3)	(28,1)	(472,1)	(464,4)	(462,2)	(492,1)	(-8,1)	(12,1)	(474,1)	(1,3)	
L1D -463>	(1,6)	(482,1)	(359,1)	(486,1)	(384,1)	(454,1)	(453,1)	(226,1)	(470,1)	(1,0)	(1,0)	(1,0)	(1,0)	(1,0)	(1,0)	(1,0)	
L1D -462>	(466,5)	(3,2)	(468,2)	(1,4)	(310,1)	(472,1)	(470,3)	(462,4)	(460,4)	(442,1)	(458,3)	(446,2)	(480,1)	(448,2)	(108,1)	(484,2)	
L1D -461>	(1,3)	(76,1)	(254,1)	(369,1)	(1,0)	(1,0)	(1,0)	(1,0)	(1,0)	(1,0)	(1,0)	(1,0)	(1,0)	(1,0)	(1,0)	(1,0)	
L1D -460>	(2,10)	(458,2)	(470,1)	(482,1)	(466,4)	(329,1)	(461,1)	(456,4)	(452,1)	(318,1)	(108,1)	(434,2)	(450,4)	(504,1)	(480,2)	(464,3)	
L1D -459>	(479,1)	(470,1)	(1,6)	(282,1)	(491,1)	(-51,1)	(456,1)	(303,1)	(448,1)	(464,1)	(347,1)	(418,1)	(472,1)	(1,0)	(1,0)	(1,0)	
L1D -458>	(470,2)	(456,4)	(484,1)	(462,3)	(437,1)	(448,2)	(446,1)	(452,2)	(422,1)	(468,1)	(458,3)	(459,4)	(440,2)	(460,4)	(46,1)	(454,2)	
L1D -457>	(1,12)	(450,1)	(341,1)	(478,1)	(430,1)	(24,1)	(373,1)	(4,1)	(331,1)	(-2,2)	(-1,1)	(1,0)	(1,0)	(1,0)	(1,0)	(1,0)	
L1D -456>	(1,9)	(-32,1)	(2,2)	(474,3)	(-2,1)	(460,3)	(446,1)	(444,1)	(306,1)	(464,3)	(428,2)	(470,1)	(452,2)	(456,4)	(450,5)	(54,1)	
L1D -455>	(1,3)	(448,1)	(442,1)	(68,1)	(430,1)	(3,1)	(299,1)	(455,1)	(56,1)	(479,1)	(1,0)	(1,0)	(1,0)	(1,0)	(1,0)	(1,0)	
L1D -454>	(440,1)	(460,3)	(3,4)	(462,2)	(493,1)	(438,4)	(458,3)	(454,3)	(232,1)	(-18,1)	(432,1)	(444,2)	(4,1)	(50,1)	(168,1)	(156,1)	
L1D -453>	(312,2)	(1,3)	(-56,1)	(5,1)	(446,1)	(408,1)	(505,1)	(261,1)	(459,1)	(462,1)	(436,1)	(321,1)	(375,1)	(435,1)	(1,0)	(1,0)	
L1D -452>	(32,1)	(454,6)	(456,4)	(440,5)	(444,2)	(204,1)	(34,1)	(365,1)	(428,1)	(468,1)	(472,2)	(442,3)	(190,1)	(446,3)	(448,2)	(458,2)	
L1D -451>	(1,5)	(-4,1)	(384,1)	(367,1)	(274,1)	(394,1)	(38,1)	(324,1)	(1,0)	(1,0)	(1,0)	(1,0)	(1,0)	(1,0)	(1,0)	(1,0)	
L1D -450>	(182,1)	(1,4)	(470,1)	(452,4)	(444,4)	(450,3)	(426,2)	(12,1)	(456,2)	(162,1)	(464,5)	(468,1)	(-34,1)	(462,3)	(448,1)	(472,1)	
L1D -449>	(460,1)	(1,6)	(69,1)	(458,1)	(456,1)	(230,1)	(250,1)	(444,1)	(383,1)	(-1,1)	(319,1)	(1,0)	(1,0)	(1,0)	(1,0)	(1,0)	
L1D -448>	(448,1)	(442,4)	(446,3)	(106,1)	(426,2)	(438,4)	(436,4)	(454,6)	(40,1)	(368,1)	(4,1)	(460,2)	(440,3)	(416,1)	(456,4)	(292,1)	
L1D -447>	(404,1)	(1,6)	(318,1)	(-59,1)	(363,1)	(440,1)	(60,1)	(452,1)	(323,1)	(1,0)	(1,0)	(1,0)	(1,0)	(1,0)	(1,0)	(1,0)	
L1D -446>	(442,6)	(-2,1)	(458,5)	(334,1)	(438,4)	(426,2)	(10,1)	(411,1)	(470,1)	(450,3)	(464,1)	(452,2)	(478,1)	(440,1)	(446,3)	(486,1)	
L1D -445>	(1,5)	(416,1)	(-2,1)	(383,1)	(190,1)	(434,2)	(8,1)	(315,1)	(1,0)	(1,0)	(1,0)	(1,0)	(1,0)	(1,0)	(1,0)	(1,0)	
L1D -444>	(444,4)	(270,1)	(450,4)	(452,1)	(428,1)	(446,8)	(480,1)	(442,4)	(198,1)	(440,3)	(412,1)	(448,5)	(445,2)	(434,1)	(-66,1)	(422,1)	
L1D -443>	(1,7)	(375,1)	(507,1)	(432,1)	(349,1)	(318,1)	(444,1)	(-1,1)	(1,0)	(1,0)	(1,0)	(1,0)	(1,0)	(1,0)	(1,0)	(1,0)	
L1D -442>	(470,1)	(466,1)	(446,2)	(418,1)	(428,2)	(444,2)	(424,1)	(458,1)	(426,1)	(430,2)	(434,4)	(-68,1)	(158,1)	(420,1)	(124,1)	(-2,3)	
L1D -441>	(1,2)	(460,1)	(331,1)	(-2,1)	(430,1)	(470,1)	(452,1)	(412,1)	(472,1)	(323,1)	(403,1)	(2,1)	(381,1)	(1,0)	(1,0)	(1,0)	
L1D -440>	(440,2)	(1,3)	(432,4)	(420,3)	(456,1)	(-20,1)	(430,2)	(416,1)	(174,1)	(436,3)	(412,1)	(156,1)	(446,7)	(444,1)	(464,2)	(192,1)	
L1D -439>	(1,4)	(434,2)	(446,1)	(2,2)	(438,1)	(353,1)	(-44,1)	(337,1)	(379,1)	(1,0)	(1,0)	(1,0)	(1,0)	(1,0)	(1,0)	(1,0)	
L1D -438>	(4,2)	(424,3)	(448,3)	(456,2)	(454,2)	(442,6)	(452,1)	(416,3)	(-72,1)	(430,3)	(440,2)	(427,1)	(8,1)	(468,2)	(436,3)	(462,1)	
L1D -437>	(1,21)	(43,1)	(434,1)	(485,1)	(297,1)	(447,1)	(2,3)	(452,1)	(306,1)	(439,1)	(305,1)	(1,0)	(1,0)	(1,0)	(1,0)	(1,0)	
L1D -436>	(428,1)	(441,1)	(1,3)	(458,1)	(448,2)	(30,2)	(436,2)	(128,1)	(442,1)	(420,1)	(426,4)	(430,4)	(432,3)	(57,1)	(456,3)	(452,1)	
L1D -435>	(1,3)	(21,1)	(-74,1)	(287,1)	(255,1)	(-2,1)	(445,1)	(416,1)	(1,0)	(1,0)	(1,0)	(1,0)	(1,0)	(1,0)	(1,0)	(1,0)	
L1D -434>	(6,2)	(442,3)	(424,5)	(432,1)	(438,1)	(-24,1)	(410,1)	(18,1)	(380,1)	(416,2)	(420,2)	(406,1)	(377,1)	(436,5)	(458,1)	(140,1)	
L1D -433>	(1,2)	(349,1)	(426,1)	(304,1)	(303,1)	(456,1)	(6,2)	(419,1)	(390,1)	(438,1)	(422,1)	(1,0)	(1,0)	(1,0)	(1,0)	(1,0)	
L1D -432>	(1,2)	(422,1)	(192,2)	(440,3)	(418,1)	(289,1)	(428,1)	(406,1)	(438,2)	(318,1)	(288,1)	(436,3)	(124,1)	(444,2)	(2,2)	(442,2)	
L1D -431>	(1,3)	(420,1)	(431,1)	(452,1)	(401,1)	(506,1)	(449,1)	(120,1)	(312,1)	(1,0)	(1,0)	(1,0)	(1,0)	(1,0)	(1,0)	(1,0)	
L1D -430>	(420,2)	(1,3)	(414,1)	(460,1)	(74,1)	(198,1)	(448,1)	(450,1)	(68,2)	(412,2)	(438,3)	(18,1)	(352,1)	(426,1)	(172,1)	(430,5)	
L1D -429>	(1,7)	(440,1)	(424,1)	(-80,1)	(430,1)	(489,1)	(378,1)	(434,2)	(291,1)	(444,1)	(1,0)	(1,0)	(1,0)	(1,0)	(1,0)	(1,0)	
L1D -428>	(444,1)	(1,16)	(492,1)	(422,1)	(72,1)	(158,1)	(412,6)	(4,1)	(418,1)	(442,3)	(456,1)	(436,3)	(406,2)	(440,1)	(304,1)	(130,1)	
L1D -427>	(1,8)	(422,1)	(406,1)	(394,1)	(334,1)	(-83,1)	(425,1)	(292,1)	(40,1)	(257,1)	(404,1)	(376,1)	(1,0)	(1,0)	(1,0)	(1,0)	
L1D -426>	(440,2)	(142,1)	(341,1)	(404,1)	(398,1)	(98,1)	(2,9)	(432,3)	(416,3)	(24,1)	(422,3)	(1,1)	(442,3)	(426,5)	(5,3)	(368,1)	
L1D -425>	(85,1)	(1,11)	(432,1)	(-1,2)	(168,1)	(428,1)	(452,1)	(-2,1)	(457,1)	(3,1)	(379,1)	(27,1)	(308,1)	(1,0)	(1,0)	(1,0)	
L1D -424>	(1,12)	(2,2)	(434,3)	(410,2)	(428,4)	(467,1)	(-2,13)	(398,3)	(420,3)	(424,1)	(130,2)	(292,4)	(370,1)	(204,1)	(450,1)	(430,3)	
L1D -423>	(1,2)	(442,1)	(434,1)	(291,10)	(410,1)	(-42,1)	(422,2)	(335,1)	(36,1)	(424,1)	(341,1)	(415,1)	(1,0)	(1,0)	(1,0)	(1,0)	
L1D -422>	(1,4)	(2,1)	(430,2)	(290,7)	(338,1)	(444,1)	(432,2)	(412,6)	(426,1)	(418,2)	(428,6)	(416,3)	(422,1)	(413,1)	(436,3)	(402,2)	
L1D -421>	(1,10)	(289,9)	(-2,5)	(438,1)	(406,1)	(375,1)	(283,1)	(363,1)	(1,0)	(1,0)	(1,0)	(1,0)	(1,0)	(1,0)	(1,0)	(1,0)	
L1D -420>	(404,2)	(1,3)	(288,8)	(432,3)	(416,4)	(420,4)	(430,1)	(20,1)	(230,1)	(426,2)	(5,1)	(394,2)	(499,1)	(396,1)	(408,2)	(428,3)	
L1D -419>	(1,4)	(420,1)	(291,1)	(421,1)	(287,1)	(-1,1)	(398,1)	(489,1)	(393,1)	(1,0)	(1,0)	(1,0)	(1,0)	(1,0)	(1,0)	(1,0)	
L1D -418>	(290,2)	(1,8)	(436,4)	(418,2)	(400,2)	(410,5)	(188,1)	(286,8)	(96,2)	(72,1)	(434,1)	(420,3)	(-50,1)	(428,4)	(-2,4)	(424,2)	
L1D -417>	(1,1)	(289,3)	(285,6)	(312,1)	(2,1)	(84,1)	(436,1)	(-90,1)	(-93,1)	(70,1)	(16,2)	(384,1)	(429,1)	(376,1)	(398,1)	(451,1)	
L1D -416>	(1,2)	(15,2)	(70,1)	(58,1)	(412,4)	(418,3)	(422,3)	(284,7)	(16,5)	(350,1)	(424,2)	(396,2)	(392,2)	(420,4)	(408,4)	(434,1)	
L1D -415>	(1,4)	(392,1)	(-26,1)	(400,1)	(287,1)	(283,10)	(449,1)	(-2,1)	(2,3)	(385,1)	(-14,1)	(-96,1)	(490,1)	(350,1)	(1,0)	(1,0)	
L1D -414>	(397,1)	(420,4)	(2,1)	(430,3)	(402,1)	(14,1)	(485,1)	(1,1)	(3,1)	(282,10)	(410,3)	(416,3)	(408,1)	(192,1)	(358,1)	(415,2)	
L1D -413>	(1,2)	(285,1)	(399,1)	(281,6)	(56,1)	(491,1)	(407,1)	(425,1)	(91,1)	(416,1)	(266,1)	(-1,1)	(395,1)	(455,1)	(458,1)	(1,0)	
L1D -412>	(1,3)	(400,4)	(412,3)	(404,5)	(311,1)	(-20,1)	(422,1)	(402,4)	(410,1)	(394,2)	(396,2)	(414,1)	(361,1)	(280,8)	(428,1)	(420,2)	
L1D -411>	(422,1)	(283,2)	(1,1)	(431,1)	(279,7)	(-99,1)	(258,1)	(399,1)	(408,1)	(277,1)	(428,1)	(1,0)	(1,0)	(1,0)	(1,0)	(1,0)	
L1D -410>	(282,2)	(396,2)	(414,1)	(1,3)	(408,3)	(74,1)	(418,2)	(278,7)	(333,1)	(313,1)	(16,1)	(412,2)	(388,1)	(106,1)	(410,1)	(142,1)	
L1D -409>	(1,3)	(418,1)	(410,1)	(355,1)	(277,4)	(449,1)	(494,1)	(252,1)	(293,1)	(416,1)	(1,0)	(1,0)	(1,0)	(1,0)	(1,0)	(1,0)	
L1D -408>	(280,4)	(412,2)	(409,1)	(428,2)	(424,2)	(404,2)	(422,2)	(390,3)	(194,1)	(464,1)	(392,2)	(410,3)	(276,6)	(396,2)	(2,3)	(70,1)	
L1D -407>	(279,2)	(1,5)	(275,8)	(424,1)	(2,1)	(345,1)	(337,1)	(-50,1)	(252,1)	(289,1)	(455,1)	(410,1)	(428,1)	(3,1)	(440,1)	(357,1)	
L1D -406>	(1,39)	(408,5)	(394,3)	(398,1)	(430,2)	(2,16)	(416,4)	(410,4)	(118,1)	(384,2)	(52,1)	(386,2)	(274,8)	(360,2)	(404,3)	(74,1)	
L1D -405>	(1,2)	(277,1)	(455,1)	(273,4)	(474,1)	(396,1)	(281,1)	(1,0)	(1,0)	(1,0)	(1,0)	(1,0)	(1,0)	(1,0)	(1,0)	(1,0)	
L1D -404>	(272,9)	(392,1)	(276,1)	(406,3)	(387,1)	(382,1)	(-34,1)	(386,1)	(351,1)	(404,4)	(412,5)	(414,2)	(130,1)	(-36,1)	(420,3)	(396,1)	
L1D -403>	(1,3)	(-34,1)	(292,1)	(275,2)	(271,4)	(-107,1)	(334,1)	(451,1)	(277,1)	(474,1)	(384,1)	(1,0)	(1,0)	(1,0)	(1,0)	(1,0)	
L1D -402>	(406,1)	(274,2)	(110,1)	(388,2)	(4,1)	(402,1)	(372,1)	(370,1)	(418,3)	(408,3)	(403,2)	(410,3)	(414,1)	(270,5)	(-42,1)	(262,1)	
L1D -401>	(1,6)	(410,1)	(269,11)	(409,1)	(386,1)	(273,1)	(390,1)	(159,1)	(-28,1)	(296,1)	(236,1)	(252,1)	(1,0)	(1,0)	(1,0)	(1,0)	
L1D -400>	(374,1)	(272,1)	(1,6)	(54,1)	(353,1)	(388,2)	(424,1)	(345,1)	(382,2)	(402,3)	(410,2)	(386,2)	(414,2)	(297,1)	(400,2)	(430,1)	
L1D -399>	(271,5)	(1,4)	(267,9)	(229,1)	(301,1)	(-50,1)	(488,1)	(324,1)	(365,1)	(2,2)	(259,1)	(11,1)	(308,2)	(463,1)	(347,1)	(316,1)	
L1D -398>	(402,2)	(-84,1)	(1,2)	(83,1)	(400,1)	(418,3)	(28,1)	(392,2)	(398,5)	(266,6)	(384,1)	(422,1)	(300,1)	(-28,1)	(390,2)	(394,3)	
L1D -397>	(1,3)	(394,1)	(265,6)	(441,1)	(226,1)	(269,1)	(396,1)	(406,1)	(358,1)	(395,1)	(191,1)	(359,1)	(312,1)	(10,1)	(376,1)	(1,0)	
L1D -396>	(1,2)	(264,11)	(398,1)	(400,5)	(402,3)	(396,2)	(404,1)	(420,1)	(418,3)	(460,1)	(412,1)	(84,1)	(388,4)	(406,4)	(380,2)	(-26,1)	
L1D -395>	(350,1)	(380,1)	(1,3)	(262,1)	(3,1)	(445,1)	(186,1)	(6,2)	(431,1)	(2,1)	(263,10)	(369,1)	(465,1)	(388,1)	(308,1)	(487,1)	
L1D -394>	(384,1)	(266,1)	(388,3)	(358,1)	(1,2)	(353,1)	(395,3)	(410,2)	(392,6)	(466,1)	(364,1)	(370,1)	(262,12)	(289,1)	(352,1)	(394,3)	
L1D -393>	(261,10)	(1,4)	(394,1)	(328,1)	(312,1)	(321,1)	(361,1)	(2,5)	(406,1)	(-116,1)	(420,1)	(441,2)	(265,1)	(244,1)	(374,1)	(0,1)	
L1D -392>	(1,7)	(449,1)	(-63,1)	(402,3)	(396,3)	(260,7)	(-70,1)	(128,1)	(42,1)	(4,2)	(422,1)	(408,2)	(394,5)	(-22,1)	(386,2)	(247,1)	
L1D -391>	(1,4)	(-26,1)	(263,2)	(200,1)	(259,5)	(440,1)	(279,1)	(318,1)	(-1,2)	(-2,1)	(379,1)	(369,1)	(278,1)	(398,1)	(3,1)	(1,0)	
L1D -390>	(348,1)	(430,1)	(1,1)	(368,1)	(418,1)	(258,8)	(382,2)	(388,2)	(414,3)	(402,2)	(372,1)	(40,1)	(380,3)	(420,1)	(406,1)	(76,1)	
L1D -389>	(6,1)	(1,9)	(261,1)	(394,1)	(383,1)	(3,3)	(402,1)	(-30,1)	(367,1)	(257,6)	(278,1)	(337,1)	(374,1)	(393,1)	(-2,1)	(506,1)	
L1D -388>	(260,4)	(1,5)	(402,2)	(380,1)	(366,3)	(382,3)	(430,2)	(400,3)	(256,9)	(404,2)	(341,1)	(379,1)	(98,1)	(428,1)	(-78,1)	(410,2)	
L1D -387>	(384,2)	(268,1)	(255,6)	(426,1)	(372,1)	(-22,1)	(409,1)	(364,1)	(-66,1)	(387,1)	(390,1)	(138,1)	(-122,1)	(264,1)	(301,1)	(388,1)	
L1D -386>	(378,1)	(254,7)	(376,3)	(1,1)	(36,1)	(370,2)	(-44,1)	(358,1)	(390,4)	(384,2)	(325,1)	(-60,1)	(495,1)	(168,1)	(2,2)	(96,1)	
L1D -385>	(337,1)	(1,5)	(396,1)	(497,1)	(367,1)	(253,8)	(366,1)	(74,1)	(433,1)	(368,1)	(0,2)	(398,1)	(344,1)	(429,1)	(213,1)	(450,1)	
L1D -384>	(1,2)	(378,6)	(408,1)	(252,5)	(482,1)	(256,2)	(418,1)	(-1,2)	(386,3)	(385,2)	(380,4)	(376,3)	(396,1)	(362,1)	(392,1)	(370,1)	
L1D -383>	(390,1)	(1,6)	(-54,1)	(-70,1)	(428,1)	(292,1)	(251,3)	(255,1)	(375,1)	(348,1)	(341,1)	(2,2)	(384,1)	(372,1)	(313,1)	(3,1)	
L1D -382>	(409,1)	(254,1)	(368,3)	(376,2)	(398,2)	(170,1)	(424,1)	(388,4)	(382,5)	(362,1)	(374,2)	(435,1)	(386,3)	(-90,1)	(439,1)	(14,1)	
L1D -381>	(1,14)	(249,7)	(400,1)	(338,1)	(481,1)	(4,2)	(5,1)	(374,1)	(-128,1)	(303,1)	(336,1)	(248,1)	(-20,1)	(339,1)	(2,4)	(407,1)	
L1D -380>	(1,4)	(2,2)	(378,3)	(248,7)	(410,2)	(380,5)	(3,1)	(406,1)	(370,1)	(-50,1)	(-84,1)	(394,1)	(364,3)	(360,1)	(126,1)	(388,1)	
L1D -379>	(1,9)	(380,1)	(-32,1)	(9,1)	(358,1)	(247,3)	(418,1)	(365,1)	(488,1)	(325,1)	(3,1)	(277,1)	(384,1)	(26,1)	(400,1)	(312,1)	
L1D -378>	(1,16)	(384,6)	(378,2)	(-110,1)	(374,5)	(370,1)	(380,2)	(392,1)	(386,4)	(382,1)	(396,2)	(365,1)	(-42,1)	(58,1)	(356,1)	(372,3)	
L1D -377>	(218,1)	(48,1)	(370,1)	(376,1)	(334,2)	(245,2)	(1,1)	(240,1)	(371,1)	(418,1)	(-2,1)	(-12,1)	(24,1)	(265,1)	(420,1)	(417,1)	
L1D -376>	(368,5)	(244,1)	(402,1)	(390,1)	(382,3)	(1,2)	(380,4)	(378,2)	(-54,1)	(364,1)	(52,1)	(376,2)	(-1,3)	(324,1)	(345,1)	(473,1)	
L1D -375>	(122,1)	(-87,1)	(382,1)	(2,2)	(502,1)	(1,1)	(374,1)	(338,1)	(-22,1)	(410,1)	(497,1)	(331,1)	(-98,1)	(-131,1)	(450,1)	(337,2)	
L1D -374>	(375,3)	(370,1)	(1,4)	(360,1)	(384,1)	(364,4)	(368,2)	(86,1)	(400,1)	(64,1)	(362,4)	(374,2)	(-46,1)	(332,1)	(348,1)	(477,1)	
L1D -373>	(1,5)	(2,1)	(300,1)	(370,2)	(238,1)	(382,1)	(273,1)	(390,1)	(-1,2)	(9,1)	(-137,1)	(108,1)	(398,1)	(372,1)	(438,1)	(396,1)	
L1D -372>	(364,1)	(374,4)	(232,1)	(346,2)	(392,1)	(477,1)	(0,1)	(-39,1)	(366,4)	(350,2)	(370,1)	(372,4)	(196,1)	(378,4)	(1,2)	(382,5)	
L1D -371>	(407,1)	(1,1)	(331,1)	(302,1)	(364,1)	(453,1)	(389,1)	(384,1)	(419,1)	(400,1)	(1,0)	(1,0)	(1,0)	(1,0)	(1,0)	(1,0)	
L1D -370>	(1,3)	(372,2)	(376,3)	(370,1)	(364,1)	(348,1)	(360,1)	(380,3)	(62,2)	(356,1)	(358,4)	(501,1)	(362,2)	(382,3)	(312,1)	(390,1)	
L1D -369>	(1,3)	(296,1)	(368,1)	(384,1)	(444,1)	(-6,1)	(313,1)	(309,1)	(1,0)	(1,0)	(1,0)	(1,0)	(1,0)	(1,0)	(1,0)	(1,0)	
L1D -368>	(1,4)	(374,1)	(390,2)	(310,1)	(372,3)	(356,5)	(350,1)	(3,4)	(354,2)	(340,1)	(389,1)	(366,2)	(398,1)	(367,1)	(369,2)	(475,1)	
L1D -367>	(373,1)	(1,5)	(3,1)	(2,2)	(358,1)	(357,1)	(-144,1)	(-42,1)	(489,1)	(5,2)	(260,1)	(1,0)	(1,0)	(1,0)	(1,0)	(1,0)	
L1D -366>	(1,2)	(376,2)	(2,3)	(378,1)	(350,3)	(354,2)	(364,2)	(372,2)	(382,2)	(493,1)	(-94,1)	(392,2)	(394,1)	(360,2)	(386,2)	(-110,1)	
L1D -365>	(1,11)	(396,1)	(21,1)	(160,1)	(336,1)	(368,1)	(213,1)	(432,1)	(356,2)	(231,1)	(4,1)	(380,1)	(311,1)	(346,1)	(66,1)	(342,1)	
L1D -364>	(-2,1)	(1,2)	(364,2)	(444,1)	(346,4)	(350,4)	(372,3)	(386,2)	(380,2)	(368,4)	(70,1)	(457,1)	(289,1)	(-72,1)	(366,2)	(-20,1)	
L1D -363>	(1,2)	(-20,1)	(341,1)	(11,1)	(388,1)	(423,1)	(0,1)	(2,1)	(393,1)	(-146,1)	(382,1)	(348,1)	(332,1)	(422,1)	(458,1)	(1,0)	
L1D -362>	(360,2)	(3,2)	(378,1)	(362,2)	(386,1)	(372,3)	(342,1)	(375,1)	(350,2)	(354,1)	(376,5)	(268,1)	(382,2)	(112,1)	(412,1)	(-32,1)	
L1D -361>	(1,3)	(348,1)	(354,1)	(-10,1)	(7,1)	(406,1)	(-2,1)	(339,1)	(-34,1)	(-29,1)	(382,1)	(362,1)	(430,1)	(429,1)	(1,0)	(1,0)	
L1D -360>	(376,3)	(358,5)	(368,4)	(7,2)	(354,3)	(360,4)	(336,1)	(382,2)	(282,1)	(364,2)	(328,1)	(339,1)	(350,2)	(-68,2)	(380,2)	(342,1)	
L1D -359>	(364,1)	(1,2)	(275,1)	(302,1)	(-128,1)	(-114,1)	(393,1)	(389,2)	(360,1)	(7,1)	(296,1)	(489,1)	(3,1)	(356,1)	(-30,1)	(-1,1)	
L1D -358>	(1,3)	(393,1)	(350,1)	(334,2)	(372,4)	(358,1)	(407,1)	(52,1)	(368,2)	(370,3)	(346,3)	(330,1)	(286,1)	(340,1)	(342,1)	(356,3)	
L1D -357>	(364,1)	(342,1)	(395,1)	(1,3)	(283,2)	(309,1)	(464,1)	(408,1)	(460,1)	(390,1)	(393,1)	(368,1)	(389,2)	(414,1)	(1,0)	(1,0)	
L1D -356>	(1,3)	(366,2)	(352,2)	(120,2)	(-1,1)	(364,3)	(348,5)	(356,3)	(344,3)	(360,1)	(368,2)	(362,3)	(350,5)	(342,4)	(216,1)	(124,1)	
L1D -355>	(330,1)	(1,9)	(6,1)	(352,1)	(338,1)	(364,1)	(348,1)	(389,1)	(-126,1)	(3,1)	(434,1)	(435,1)	(2,4)	(321,1)	(377,1)	(1,0)	
L1D -354>	(354,2)	(1,5)	(108,1)	(380,2)	(370,5)	(344,3)	(358,2)	(-52,1)	(134,1)	(355,2)	(386,1)	(346,2)	(364,4)	(124,1)	(366,1)	(356,1)	
L1D -353>	(1,5)	(348,1)	(400,1)	(339,1)	(249,1)	(318,1)	(338,1)	(270,1)	(470,1)	(442,1)	(6,4)	(-28,1)	(384,1)	(403,1)	(1,0)	(1,0)	
L1D -352>	(354,1)	(1,5)	(352,4)	(358,3)	(366,1)	(-102,1)	(-12,1)	(346,3)	(348,2)	(353,1)	(425,1)	(-76,1)	(330,1)	(2,4)	(-16,2)	(356,2)	
L1D -351>	(337,1)	(368,1)	(1,4)	(338,1)	(371,1)	(447,1)	(2,4)	(362,1)	(254,1)	(330,1)	(5,1)	(414,1)	(162,1)	(395,1)	(326,1)	(347,1)	
L1D -350>	(342,4)	(356,2)	(352,2)	(240,1)	(1,5)	(2,1)	(-64,1)	(376,1)	(327,1)	(80,1)	(364,3)	(72,1)	(476,1)	(344,2)	(246,1)	(36,1)	
L1D -349>	(1,3)	(346,1)	(378,1)	(41,1)	(356,1)	(396,1)	(300,1)	(495,1)	(277,1)	(305,1)	(373,1)	(348,1)	(-162,1)	(340,1)	(1,0)	(1,0)	
L1D -348>	(-132,1)	(364,4)	(308,1)	(360,1)	(354,5)	(338,2)	(342,3)	(132,1)	(352,4)	(422,1)	(334,3)	(340,4)	(344,1)	(42,1)	(20,1)	(395,1)	
L1D -347>	(338,1)	(98,1)	(44,1)	(464,1)	(360,1)	(462,1)	(296,1)	(387,1)	(-2,1)	(358,1)	(-4,1)	(470,1)	(1,0)	(1,0)	(1,0)	(1,0)	
L1D -346>	(358,3)	(336,2)	(3,2)	(370,2)	(362,4)	(352,2)	(348,4)	(330,1)	(366,3)	(448,1)	(368,2)	(345,1)	(332,3)	(342,2)	(326,3)	(-18,1)	
L1D -345>	(1,3)	(322,1)	(114,1)	(286,1)	(413,1)	(5,1)	(344,1)	(2,1)	(346,1)	(289,1)	(357,1)	(-52,1)	(-24,1)	(1,0)	(1,0)	(1,0)	
L1D -344>	(2,1)	(358,3)	(342,3)	(356,3)	(338,5)	(346,5)	(336,2)	(20,1)	(370,1)	(318,2)	(350,3)	(-90,1)	(344,1)	(374,1)	(340,4)	(416,1)	
L1D -343>	(2,1)	(1,6)	(321,1)	(456,1)	(364,1)	(233,1)	(386,1)	(334,1)	(406,1)	(358,1)	(410,1)	(288,1)	(362,2)	(383,1)	(412,1)	(234,1)	
L1D -342>	(350,5)	(346,2)	(322,1)	(344,2)	(-138,1)	(338,1)	(326,1)	(366,1)	(354,4)	(348,4)	(220,1)	(488,1)	(328,3)	(374,1)	(342,2)	(-148,1)	
L1D -341>	(1,3)	(439,1)	(340,2)	(497,1)	(440,1)	(94,1)	(7,1)	(-1,2)	(343,1)	(268,1)	(459,1)	(392,1)	(1,0)	(1,0)	(1,0)	(1,0)	
L1D -340>	(1,2)	(66,1)	(336,2)	(356,1)	(332,4)	(327,1)	(342,2)	(340,5)	(321,1)	(338,1)	(441,1)	(352,2)	(328,1)	(64,1)	(12,1)	(-26,1)	
L1D -339>	(316,1)	(1,3)	(60,1)	(350,2)	(310,1)	(488,1)	(273,1)	(351,1)	(-170,1)	(37,1)	(369,1)	(342,1)	(334,1)	(337,1)	(409,1)	(358,1)	
L1D -338>	(1,2)	(328,1)	(342,1)	(336,4)	(-132,1)	(354,2)	(320,1)	(348,3)	(330,4)	(106,1)	(334,2)	(294,1)	(338,3)	(332,2)	(346,2)	(358,1)	
L1D -337>	(95,1)	(325,1)	(1,4)	(382,1)	(311,1)	(364,1)	(295,1)	(3,1)	(464,1)	(390,1)	(318,1)	(460,1)	(477,1)	(1,0)	(1,0)	(1,0)	
L1D -336>	(342,4)	(340,1)	(257,1)	(1,1)	(426,1)	(288,2)	(267,1)	(318,1)	(30,1)	(348,3)	(332,1)	(-50,1)	(320,2)	(346,3)	(330,2)	(308,1)	
L1D -335>	(1,5)	(344,1)	(392,1)	(445,1)	(460,1)	(326,1)	(502,1)	(4,1)	(433,1)	(346,1)	(88,1)	(262,1)	(389,1)	(318,1)	(317,1)	(203,1)	
L1D -334>	(326,5)	(340,6)	(3,3)	(344,2)	(342,6)	(332,2)	(202,5)	(2,2)	(335,4)	(324,4)	(354,1)	(447,1)	(338,2)	(393,1)	(278,1)	(279,1)	
L1D -333>	(-15,1)	(1,6)	(328,2)	(505,1)	(498,1)	(334,1)	(355,1)	(424,1)	(483,1)	(202,1)	(487,1)	(485,1)	(5,1)	(348,1)	(2,1)	(-55,1)	
L1D -332>	(1,6)	(200,2)	(354,3)	(336,4)	(328,2)	(320,3)	(338,2)	(326,2)	(-38,1)	(367,1)	(300,2)	(302,1)	(332,3)	(-21,1)	(471,1)	(344,2)	
L1D -331>	(1,6)	(376,1)	(368,1)	(3,2)	(199,6)	(408,1)	(390,1)	(322,1)	(310,1)	(43,6)	(93,2)	(1,0)	(1,0)	(1,0)	(1,0)	(1,0)	
L1D -330>	(330,2)	(1,2)	(324,3)	(186,1)	(326,4)	(198,5)	(328,2)	(331,2)	(318,2)	(348,1)	(332,5)	(4,1)	(312,2)	(146,1)	(100,1)	(322,4)	
L1D -329>	(300,1)	(1,5)	(338,1)	(360,1)	(376,1)	(367,1)	(337,1)	(343,1)	(6,2)	(319,2)	(287,1)	(197,4)	(344,1)	(362,1)	(342,1)	(330,2)	
L1D -328>	(306,1)	(232,1)	(326,7)	(-30,1)	(316,2)	(332,3)	(-132,1)	(324,7)	(285,1)	(256,1)	(328,2)	(299,1)	(330,2)	(486,2)	(322,3)	(298,1)	
L1D -327>	(1,2)	(466,1)	(326,1)	(195,5)	(290,1)	(382,1)	(-6,1)	(401,1)	(362,1)	(500,1)	(-180,1)	(236,1)	(325,1)	(308,1)	(337,1)	(336,1)	
L1D -326>	(3,6)	(-56,2)	(-42,1)	(194,8)	(342,2)	(336,1)	(324,2)	(284,1)	(352,1)	(330,1)	(322,2)	(328,2)	(312,3)	(361,1)	(308,3)	(10,1)	
L1D -325>	(-79,1)	(-134,1)	(449,1)	(-130,1)	(325,1)	(-93,1)	(388,1)	(-16,1)	(267,1)	(300,1)	(263,1)	(317,1)	(193,2)	(3,1)	(-42,1)	(315,1)	
L1D -324>	(324,2)	(302,1)	(350,1)	(342,2)	(192,8)	(330,3)	(332,3)	(334,2)	(320,3)	(352,1)	(304,4)	(325,3)	(86,1)	(322,3)	(-54,1)	(403,1)	
L1D -323>	(1,2)	(320,1)	(-91,1)	(218,1)	(191,8)	(3,1)	(-56,1)	(216,1)	(-1,5)	(7,1)	(-6,1)	(-64,1)	(323,1)	(429,1)	(-46,1)	(-90,1)	
L1D -322>	(308,3)	(306,1)	(-15,1)	(342,3)	(42,1)	(324,3)	(340,2)	(328,3)	(3,1)	(302,2)	(-1,1)	(235,1)	(292,1)	(56,1)	(322,7)	(316,2)	
L1D -321>	(1,4)	(491,1)	(449,1)	(189,3)	(2,2)	(384,1)	(261,1)	(321,1)	(-189,1)	(12,2)	(428,1)	(416,1)	(326,1)	(349,1)	(364,1)	(1,0)	
L1D -320>	(188,7)	(321,1)	(329,1)	(346,1)	(-140,1)	(324,2)	(-2,1)	(300,3)	(306,2)	(98,1)	(328,1)	(-158,1)	(3,1)	(298,1)	(320,1)	(330,3)	
L1D -319>	(1,5)	(-55,1)	(187,5)	(-45,1)	(232,1)	(3,2)	(-36,1)	(456,1)	(329,1)	(-2,1)	(384,1)	(340,1)	(-48,1)	(311,1)	(229,1)	(314,2)	
L1D -318>	(1,3)	(-51,1)	(326,2)	(334,3)	(310,3)	(186,7)	(314,3)	(92,1)	(327,1)	(296,1)	(318,6)	(332,2)	(-40,1)	(342,1)	(4,1)	(338,1)	
L1D -317>	(1,6)	(-71,1)	(185,10)	(310,1)	(-1,1)	(340,1)	(400,1)	(360,1)	(297,1)	(328,1)	(355,1)	(1,0)	(1,0)	(1,0)	(1,0)	(1,0)	
L1D -316>	(1,2)	(302,4)	(184,8)	(306,4)	(312,5)	(316,3)	(328,2)	(332,1)	(-2,1)	(22,1)	(300,1)	(364,1)	(286,1)	(310,1)	(-28,1)	(-78,1)	
L1D -315>	(1,2)	(324,1)	(330,1)	(308,1)	(-7,1)	(-103,1)	(321,1)	(359,1)	(214,1)	(288,1)	(404,1)	(183,2)	(254,1)	(1,0)	(1,0)	(1,0)	
L1D -314>	(442,1)	(182,6)	(373,1)	(-10,1)	(295,1)	(384,1)	(58,1)	(316,1)	(-90,1)	(310,3)	(272,1)	(300,2)	(340,1)	(294,1)	(355,1)	(298,1)	
L1D -313>	(1,2)	(2,1)	(452,1)	(334,1)	(181,2)	(349,1)	(283,1)	(288,1)	(232,1)	(3,1)	(447,1)	(285,1)	(351,1)	(-78,1)	(295,1)	(275,1)	
L1D -312>	(1,5)	(308,6)	(336,1)	(419,1)	(320,1)	(312,5)	(304,3)	(124,1)	(298,2)	(328,1)	(330,3)	(342,1)	(357,1)	(292,1)	(314,4)	(322,3)	
L1D -311>	(1,1)	(353,1)	(392,1)	(179,5)	(324,1)	(6,1)	(489,1)	(308,1)	(-1,1)	(7,1)	(4,1)	(388,1)	(1,0)	(1,0)	(1,0)	(1,0)	
L1D -310>	(1,4)	(328,2)	(318,7)	(300,3)	(312,3)	(310,3)	(-58,1)	(334,1)	(313,1)	(308,2)	(314,1)	(178,7)	(298,1)	(16,1)	(353,1)	(-2,3)	
L1D -309>	(1,5)	(426,1)	(312,1)	(300,1)	(444,1)	(479,1)	(500,1)	(451,1)	(429,1)	(246,1)	(-174,1)	(177,1)	(0,1)	(326,1)	(318,1)	(-200,1)	
L1D -308>	(320,3)	(1,3)	(176,11)	(330,1)	(280,2)	(302,1)	(14,1)	(298,4)	(76,1)	(72,1)	(220,1)	(112,1)	(328,1)	(316,1)	(306,5)	(310,4)	
L1D -307>	(1,4)	(290,1)	(-144,1)	(175,10)	(321,1)	(3,1)	(486,1)	(396,1)	(282,1)	(324,1)	(-111,2)	(461,1)	(-2,1)	(346,1)	(312,1)	(1,0)	
L1D -306>	(300,1)	(308,4)	(249,1)	(-60,1)	(328,1)	(284,2)	(322,1)	(332,1)	(314,2)	(286,2)	(302,2)	(310,4)	(174,4)	(312,2)	(307,2)	(318,2)	
L1D -305>	(-2,1)	(1,1)	(173,5)	(235,1)	(-5,1)	(447,1)	(339,1)	(433,1)	(3,1)	(78,1)	(-119,1)	(460,1)	(487,1)	(-1,1)	(425,1)	(-115,1)	
L1D -304>	(302,2)	(290,2)	(172,9)	(1,3)	(308,5)	(324,3)	(298,5)	(-2,1)	(330,1)	(488,1)	(296,3)	(294,2)	(286,1)	(314,1)	(-67,1)	(316,3)	
L1D -303>	(1,4)	(-120,1)	(171,7)	(500,1)	(-21,1)	(291,1)	(-48,1)	(-92,1)	(403,1)	(-4,2)	(466,1)	(297,1)	(6,1)	(290,1)	(405,1)	(407,1)	
L1D -302>	(330,1)	(-69,1)	(304,3)	(316,1)	(306,1)	(310,3)	(170,15)	(132,1)	(372,1)	(300,2)	(56,1)	(290,2)	(294,3)	(296,2)	(278,1)	(60,1)	
L1D -301>	(274,1)	(1,4)	(382,1)	(304,1)	(169,9)	(3,1)	(280,1)	(2,5)	(5,1)	(-44,1)	(447,1)	(316,1)	(-114,1)	(343,1)	(413,1)	(-2,1)	
L1D -300>	(58,2)	(1,2)	(302,3)	(290,1)	(288,2)	(316,2)	(326,1)	(300,3)	(168,11)	(314,2)	(399,1)	(294,4)	(445,1)	(318,3)	(-75,2)	(7,1)	
L1D -299>	(-99,2)	(167,6)	(494,1)	(1,5)	(300,1)	(413,1)	(452,1)	(-160,1)	(-123,1)	(314,1)	(-103,1)	(-102,1)	(330,1)	(275,1)	(322,1)	(3,2)	
L1D -298>	(292,4)	(288,3)	(166,9)	(5,2)	(-2,3)	(302,2)	(314,5)	(2,2)	(316,4)	(294,1)	(291,1)	(290,2)	(270,1)	(-122,1)	(-48,1)	(296,2)	
L1D -297>	(1,5)	(165,17)	(-99,1)	(2,1)	(485,1)	(46,1)	(500,1)	(429,1)	(-2,1)	(3,2)	(344,1)	(-98,1)	(494,1)	(-120,1)	(-213,1)	(471,1)	
L1D -296>	(274,1)	(304,1)	(164,10)	(-198,1)	(294,2)	(286,4)	(310,1)	(292,3)	(314,3)	(1,1)	(332,1)	(296,2)	(-93,1)	(298,1)	(-46,2)	(280,2)	
L1D -295>	(1,1)	(504,1)	(290,1)	(52,1)	(399,1)	(163,5)	(289,1)	(261,1)	(284,2)	(303,1)	(285,1)	(387,1)	(2,3)	(270,1)	(1,0)	(1,0)	
L1D -294>	(108,2)	(280,2)	(112,2)	(1,5)	(306,1)	(162,11)	(288,3)	(260,1)	(272,1)	(-93,1)	(292,1)	(308,3)	(463,1)	(278,1)	(296,4)	(300,1)	
L1D -293>	(296,1)	(342,1)	(1,3)	(290,1)	(-78,1)	(479,1)	(365,1)	(60,1)	(161,7)	(364,1)	(18,1)	(-112,1)	(223,1)	(-20,1)	(44,1)	(1,0)	
L1D -292>	(160,16)	(1,2)	(-76,2)	(107,2)	(-122,1)	(460,1)	(284,5)	(292,6)	(293,2)	(310,3)	(304,2)	(312,2)	(286,3)	(-98,1)	(24,1)	(424,2)	
L1D -291>	(159,85)	(-131,1)	(-121,3)	(266,1)	(-109,3)	(-127,3)	(-124,2)	(-99,2)	(-101,2)	(-110,1)	(-120,3)	(-88,3)	(-85,2)	(397,1)	(-115,2)	(-95,2)	
L1D -290>	(158,84)	(26,1)	(-99,1)	(-88,1)	(-50,1)	(-32,1)	(80,1)	(304,1)	(342,1)	(-132,1)	(-105,1)	(-128,0)	(312,0)	(-101,0)	(290,0)	(302,0)	
L1D -289>	(-120,2)	(157,77)	(-96,1)	(-122,1)	(-92,1)	(-127,1)	(-134,1)	(293,0)	(-118,0)	(-104,0)	(374,0)	(-94,1)	(-124,0)	(-101,0)	(-103,0)	(-95,0)	
L1D -288>	(156,94)	(52,2)	(-124,1)	(-116,1)	(266,1)	(-136,1)	(-98,0)	(-107,0)	(288,0)	(-113,1)	(302,1)	(-109,0)	(-121,0)	(351,0)	(-133,1)	(466,0)	
L1D -287>	(395,1)	(155,98)	(-118,0)	(-101,1)	(279,0)	(-116,0)	(-114,2)	(-102,1)	(287,0)	(112,0)	(-130,0)	(-103,0)	(-123,1)	(-104,0)	(-107,0)	(419,2)	
L1D -286>	(154,64)	(282,0)	(-110,0)	(288,0)	(-132,0)	(-103,1)	(-119,1)	(286,0)	(306,0)	(-101,0)	(-94,0)	(353,0)	(-99,1)	(294,0)	(-111,0)	(-105,0)	
L1D -285>	(153,119)	(-109,1)	(289,1)	(-124,1)	(-104,1)	(-138,1)	(-116,1)	(-94,1)	(-96,1)	(-118,1)	(-122,1)	(2,0)	(-131,0)	(-132,0)	(-108,2)	(-112,2)	
L1D -284>	(-97,1)	(152,124)	(-130,1)	(-113,1)	(-110,1)	(-112,2)	(156,1)	(-129,1)	(-103,1)	(-122,1)	(-124,1)	(-135,2)	(-101,1)	(-140,1)	(-119,1)	(-139,1)	
L1D -283>	(-130,1)	(151,115)	(-101,1)	(-140,1)	(-108,1)	(-136,1)	(-141,0)	(298,0)	(-123,0)	(-116,0)	(-138,0)	(-139,1)	(-133,0)	(-114,0)	(-109,0)	(-103,0)	
L1D -282>	(150,98)	(-137,3)	(229,1)	(-141,1)	(-127,1)	(-125,0)	(310,0)	(-129,0)	(-140,0)	(14,0)	(292,0)	(276,0)	(-111,1)	(-113,0)	(-110,0)	(-112,0)	
L1D -281>	(149,101)	(343,1)	(-104,1)	(-109,1)	(-112,1)	(-136,1)	(-139,1)	(442,1)	(-137,0)	(-130,0)	(-118,0)	(-127,0)	(-114,0)	(-121,0)	(-126,0)	(-141,0)	
L1D -280>	(304,1)	(148,127)	(-130,2)	(-120,1)	(483,1)	(322,1)	(-140,1)	(-111,2)	(-117,1)	(412,1)	(258,1)	(-126,1)	(-103,2)	(260,1)	(276,1)	(278,2)	
L1D -279>	(147,127)	(-137,2)	(-141,1)	(-125,1)	(-134,1)	(-129,1)	(-226,1)	(-108,1)	(-118,1)	(-115,1)	(-127,1)	(-112,1)	(-119,2)	(-120,1)	(-130,1)	(-139,1)	
L1D -278>	(146,101)	(-109,1)	(-129,1)	(288,1)	(-118,1)	(-127,2)	(-146,1)	(-120,1)	(266,1)	(-145,1)	(-134,1)	(-113,1)	(-124,1)	(-133,1)	(-135,1)	(268,1)	
L1D -277>	(145,116)	(-123,1)	(-127,1)	(-115,1)	(280,1)	(-135,1)	(-232,1)	(-138,1)	(-128,1)	(272,1)	(260,1)	(-107,1)	(-108,1)	(-111,0)	(-130,0)	(-121,0)	
L1D -276>	(144,68)	(-109,1)	(-140,1)	(-112,1)	(-142,0)	(272,0)	(282,0)	(277,1)	(-114,0)	(274,0)	(-86,0)	(286,0)	(284,0)	(268,0)	(-80,0)	(-108,0)	
L1D -275>	(143,77)	(-137,1)	(-131,1)	(-113,1)	(-128,1)	(-127,0)	(348,0)	(-141,1)	(-133,0)	(-123,1)	(-142,1)	(-129,0)	(-124,0)	(-146,0)	(-148,1)	(-139,1)	
L1D -274>	(142,73)	(22,1)	(-133,1)	(-117,1)	(-120,0)	(274,1)	(-22,0)	(406,0)	(286,0)	(278,1)	(254,0)	(-141,0)	(272,0)	(-126,0)	(238,0)	(369,0)	
L1D -273>	(-151,2)	(141,85)	(-121,1)	(261,1)	(-235,1)	(-146,1)	(-118,1)	(-149,1)	(-114,0)	(-129,0)	(-136,0)	(-139,0)	(-125,1)	(-127,0)	(258,0)	(-117,2)	
L1D -272>	(140,118)	(366,1)	(-134,1)	(276,3)	(-123,1)	(-152,1)	(256,2)	(1,1)	(262,2)	(278,1)	(258,1)	(-135,1)	(-136,1)	(266,2)	(-141,2)	(236,1)	
L1D -271>	(139,127)	(0,1)	(-131,1)	(1,1)	(403,1)	(-151,1)	(3,2)	(-137,1)	(-139,1)	(-1,1)	(-148,1)	(-130,1)	(-134,1)	(275,2)	(322,1)	(-142,2)	
L1D -270>	(138,110)	(248,1)	(355,1)	(274,5)	(-120,3)	(286,2)	(264,2)	(280,1)	(-130,1)	(-128,2)	(-122,1)	(-145,2)	(240,1)	(276,1)	(262,3)	(74,1)	
L1D -269>	(137,69)	(-131,1)	(1,4)	(401,2)	(421,1)	(402,1)	(-1,3)	(398,1)	(272,1)	(1,0)	(1,0)	(1,0)	(1,0)	(1,0)	(1,0)	(1,0)	
L1D -268>	(272,4)	(276,1)	(136,10)	(268,4)	(274,3)	(-218,1)	(278,2)	(-108,1)	(-102,1)	(290,1)	(219,1)	(298,1)	(4,1)	(264,1)	(44,1)	(-2,1)	
L1D -267>	(1,4)	(135,8)	(306,1)	(271,3)	(5,1)	(274,1)	(344,1)	(-96,1)	(8,1)	(343,1)	(58,1)	(-157,1)	(4,1)	(-134,1)	(-241,1)	(-126,1)	
L1D -266>	(1,5)	(270,1)	(2,1)	(272,3)	(134,10)	(266,2)	(256,4)	(3,1)	(-160,1)	(268,6)	(12,1)	(274,4)	(278,3)	(258,3)	(-54,1)	(267,2)	
L1D -265>	(254,1)	(269,2)	(133,6)	(1,2)	(260,1)	(469,1)	(3,1)	(-1,5)	(-136,1)	(272,1)	(397,1)	(415,1)	(296,1)	(-139,1)	(2,1)	(1,0)	
L1D -264>	(132,4)	(1,3)	(262,5)	(-40,1)	(265,3)	(-6,1)	(270,4)	(260,1)	(280,1)	(-102,1)	(5,2)	(326,1)	(248,2)	(278,1)	(-130,1)	(329,1)	
L1D -263>	(1,4)	(267,1)	(-147,1)	(310,1)	(131,12)	(390,1)	(4,1)	(-142,1)	(52,2)	(-30,1)	(-1,1)	(395,1)	(-131,1)	(372,1)	(1,0)	(1,0)	
L1D -262>	(1,2)	(266,6)	(262,1)	(364,1)	(130,12)	(-94,1)	(248,1)	(3,2)	(264,3)	(244,2)	(274,2)	(254,1)	(268,2)	(252,3)	(460,1)	(2,1)	
L1D -261>	(129,12)	(254,2)	(1,3)	(3,2)	(5,3)	(4,1)	(393,2)	(-140,1)	(96,1)	(-1,1)	(265,1)	(407,1)	(294,1)	(1,0)	(1,0)	(1,0)	
L1D -260>	(264,2)	(1,7)	(250,4)	(128,12)	(254,2)	(236,1)	(262,2)	(-147,1)	(256,2)	(-18,1)	(3,2)	(242,1)	(4,1)	(-160,1)	(238,1)	(2,3)	
L1D -259>	(1,7)	(240,1)	(127,10)	(252,1)	(2,3)	(-143,1)	(263,2)	(3,4)	(-2,2)	(391,3)	(234,1)	(271,1)	(1,0)	(1,0)	(1,0)	(1,0)	
L1D -258>	(-190,1)	(11,1)	(244,2)	(258,5)	(399,1)	(242,2)	(378,1)	(390,2)	(276,1)	(470,1)	(-102,2)	(252,2)	(126,10)	(44,1)	(256,1)	(-160,1)	
L1D -257>	(1,2)	(261,1)	(45,1)	(-148,1)	(125,11)	(301,1)	(250,1)	(252,1)	(2,1)	(7,1)	(389,2)	(22,1)	(1,0)	(1,0)	(1,0)	(1,0)	
L1D -256>	(124,15)	(244,3)	(1,4)	(388,4)	(260,9)	(9,3)	(258,1)	(256,3)	(-124,1)	(264,2)	(266,2)	(230,1)	(246,4)	(2,1)	(238,1)	(-184,1)	
L1D -255>	(1,5)	(259,3)	(123,11)	(-141,1)	(256,2)	(386,1)	(232,1)	(228,1)	(387,1)	(338,1)	(252,1)	(248,1)	(-165,1)	(1,0)	(1,0)	(1,0)	
L1D -254>	(246,2)	(255,2)	(478,1)	(1,1)	(262,3)	(258,9)	(266,1)	(414,1)	(254,5)	(252,5)	(268,2)	(250,3)	(260,3)	(-88,1)	(122,11)	(236,1)	
L1D -253>	(385,3)	(1,4)	(257,1)	(2,2)	(248,1)	(6,1)	(121,7)	(39,1)	(408,1)	(3,1)	(369,1)	(-166,1)	(335,1)	(246,1)	(236,1)	(220,1)	
L1D -252>	(28,1)	(251,1)	(120,15)	(256,7)	(1,1)	(425,1)	(262,2)	(-30,1)	(337,1)	(38,1)	(-46,1)	(244,5)	(-54,1)	(-170,1)	(290,1)	(-172,1)	
L1D -251>	(1,3)	(-50,1)	(299,1)	(119,11)	(178,1)	(172,1)	(270,1)	(260,1)	(244,6)	(249,2)	(197,1)	(7,1)	(1,0)	(1,0)	(1,0)	(1,0)	
L1D -250>	(250,3)	(-38,1)	(264,1)	(216,1)	(258,3)	(-136,1)	(252,4)	(118,12)	(254,8)	(224,2)	(236,2)	(425,1)	(456,1)	(248,3)	(268,2)	(262,1)	
L1D -249>	(1,2)	(117,9)	(-156,1)	(258,1)	(-214,1)	(381,2)	(262,1)	(-170,1)	(-166,1)	(298,1)	(-46,1)	(362,1)	(307,1)	(35,1)	(250,1)	(193,1)	
L1D -248>	(1,2)	(242,2)	(232,1)	(272,1)	(226,1)	(116,6)	(488,1)	(256,2)	(231,1)	(214,1)	(-46,1)	(262,2)	(224,1)	(-155,1)	(244,3)	(248,3)	
L1D -247>	(115,8)	(416,1)	(-27,1)	(1,5)	(226,1)	(242,1)	(379,1)	(3,2)	(256,1)	(-167,1)	(248,1)	(33,2)	(7,1)	(-2,1)	(452,1)	(201,1)	
L1D -246>	(1,3)	(236,2)	(-166,1)	(-124,1)	(266,1)	(242,4)	(256,1)	(114,14)	(230,2)	(254,4)	(248,1)	(-236,2)	(-38,1)	(244,1)	(246,3)	(281,1)	
L1D -245>	(1,4)	(222,1)	(27,1)	(-39,1)	(228,1)	(113,14)	(272,1)	(-155,1)	(226,1)	(320,1)	(-48,1)	(-167,1)	(-158,1)	(1,0)	(1,0)	(1,0)	
L1D -244>	(112,12)	(256,2)	(258,6)	(264,2)	(252,1)	(242,3)	(226,3)	(245,1)	(-2,1)	(228,1)	(372,1)	(3,1)	(-234,1)	(192,1)	(-56,1)	(272,1)	
L1D -243>	(1,6)	(-166,1)	(111,12)	(285,1)	(293,1)	(248,1)	(52,2)	(247,1)	(318,1)	(411,1)	(1,0)	(1,0)	(1,0)	(1,0)	(1,0)	(1,0)	
L1D -242>	(1,2)	(242,2)	(236,2)	(246,4)	(228,2)	(268,1)	(16,1)	(240,6)	(110,15)	(254,1)	(152,1)	(244,5)	(6,1)	(14,2)	(-144,1)	(10,1)	
L1D -241>	(-27,1)	(-109,1)	(109,20)	(1,1)	(227,1)	(244,1)	(200,1)	(239,1)	(242,1)	(-178,1)	(230,1)	(-2,1)	(211,1)	(1,0)	(1,0)	(1,0)	
L1D -240>	(236,3)	(240,3)	(226,3)	(258,2)	(260,2)	(108,7)	(-170,1)	(250,2)	(216,3)	(230,5)	(218,1)	(254,2)	(40,1)	(248,3)	(242,1)	(220,3)	
L1D -239>	(1,4)	(248,2)	(-28,2)	(107,13)	(4,1)	(433,1)	(-165,1)	(315,1)	(360,1)	(-222,1)	(-182,1)	(-181,2)	(-1,2)	(1,0)	(1,0)	(1,0)	
L1D -238>	(-2,1)	(347,1)	(2,1)	(234,4)	(262,1)	(246,1)	(106,15)	(223,1)	(360,1)	(138,1)	(104,1)	(-122,1)	(252,3)	(242,2)	(204,1)	(232,2)	
L1D -237>	(1,2)	(232,1)	(-92,1)	(-171,1)	(105,9)	(-187,1)	(405,1)	(276,1)	(244,1)	(218,1)	(-181,1)	(1,0)	(1,0)	(1,0)	(1,0)	(1,0)	
L1D -236>	(104,15)	(232,4)	(242,3)	(1,2)	(260,1)	(114,1)	(366,1)	(226,2)	(248,3)	(250,3)	(252,1)	(466,2)	(234,1)	(224,3)	(310,1)	(-16,1)	
L1D -235>	(230,1)	(103,9)	(1,9)	(2,1)	(347,1)	(-178,1)	(3,1)	(263,1)	(258,1)	(410,1)	(236,1)	(123,1)	(6,1)	(5,2)	(-2,1)	(1,0)	
L1D -234>	(254,1)	(-5,1)	(247,1)	(240,4)	(212,3)	(102,10)	(234,4)	(235,3)	(256,1)	(238,4)	(-42,1)	(206,1)	(248,2)	(14,1)	(-92,1)	(466,1)	
L1D -233>	(101,20)	(1,2)	(240,1)	(-206,1)	(-1,1)	(220,1)	(390,1)	(3,1)	(1,0)	(1,0)	(1,0)	(1,0)	(1,0)	(1,0)	(1,0)	(1,0)	
L1D -232>	(1,4)	(2,2)	(100,15)	(230,2)	(-2,5)	(262,2)	(234,3)	(232,1)	(-58,1)	(-16,1)	(3,2)	(238,4)	(248,4)	(-191,1)	(458,2)	(385,1)	
L1D -231>	(218,1)	(1,6)	(258,1)	(99,13)	(264,1)	(269,1)	(320,1)	(1,0)	(1,0)	(1,0)	(1,0)	(1,0)	(1,0)	(1,0)	(1,0)	(1,0)	
L1D -230>	(98,15)	(242,3)	(1,2)	(3,4)	(244,1)	(222,3)	(240,3)	(228,3)	(-30,1)	(224,3)	(238,3)	(84,1)	(226,2)	(206,1)	(-216,1)	(130,1)	
L1D -229>	(-18,1)	(234,1)	(236,1)	(257,1)	(-48,1)	(185,1)	(97,12)	(315,1)	(9,1)	(2,1)	(-10,1)	(-58,1)	(-2,1)	(256,1)	(254,1)	(261,1)	
L1D -228>	(230,2)	(-60,1)	(282,1)	(188,1)	(240,3)	(210,2)	(256,1)	(278,1)	(96,10)	(238,5)	(448,1)	(-2,2)	(222,2)	(224,2)	(206,2)	(250,1)	
L1D -227>	(1,6)	(314,1)	(95,17)	(-184,1)	(329,1)	(-1,1)	(206,1)	(7,2)	(-191,1)	(210,1)	(388,1)	(-185,1)	(2,1)	(0,1)	(332,1)	(-24,1)	
L1D -226>	(1,4)	(216,2)	(94,11)	(236,5)	(246,1)	(-189,1)	(234,1)	(228,4)	(227,1)	(222,2)	(198,2)	(208,3)	(68,1)	(3,2)	(240,1)	(-172,1)	
L1D -225>	(93,20)	(1,6)	(18,1)	(325,1)	(130,1)	(431,1)	(217,1)	(110,1)	(2,1)	(216,1)	(215,1)	(-242,1)	(-190,1)	(1,0)	(1,0)	(1,0)	
L1D -224>	(2,5)	(92,20)	(4,2)	(226,4)	(212,1)	(210,2)	(113,1)	(206,2)	(-70,1)	(213,1)	(232,3)	(225,2)	(224,2)	(3,12)	(204,1)	(200,2)	
L1D -223>	(1,8)	(2,11)	(264,1)	(204,1)	(-191,2)	(6,2)	(91,19)	(3,1)	(128,1)	(56,1)	(-200,1)	(-160,1)	(34,1)	(179,1)	(1,0)	(1,0)	
L1D -222>	(1,2)	(90,18)	(438,2)	(214,5)	(223,1)	(232,5)	(-88,1)	(238,4)	(4,1)	(-24,1)	(212,1)	(6,1)	(222,4)	(182,1)	(206,2)	(244,2)	
L1D -221>	(1,8)	(244,1)	(199,1)	(89,23)	(226,1)	(235,1)	(61,1)	(-1,1)	(198,1)	(164,1)	(240,1)	(220,1)	(1,0)	(1,0)	(1,0)	(1,0)	
L1D -220>	(1,6)	(88,13)	(3,2)	(9,2)	(5,3)	(210,2)	(196,1)	(198,2)	(-272,1)	(234,3)	(230,2)	(226,3)	(436,1)	(220,4)	(218,2)	(224,3)	
L1D -219>	(-279,1)	(1,1)	(87,22)	(236,2)	(-277,1)	(-202,1)	(304,1)	(234,1)	(212,1)	(-194,1)	(-193,2)	(1,0)	(1,0)	(1,0)	(1,0)	(1,0)	
L1D -218>	(212,2)	(86,20)	(127,1)	(46,2)	(97,1)	(130,1)	(-106,1)	(486,1)	(220,2)	(238,2)	(-258,1)	(116,1)	(222,5)	(226,2)	(-24,1)	(219,2)	
L1D -217>	(214,3)	(85,28)	(2,8)	(221,1)	(1,6)	(231,1)	(-195,2)	(401,1)	(-1,3)	(-2,3)	(5,1)	(3,1)	(-205,1)	(91,1)	(1,0)	(1,0)	
L1D -216>	(230,1)	(1,3)	(84,18)	(200,1)	(222,2)	(-248,1)	(248,1)	(224,4)	(210,1)	(360,1)	(-228,1)	(194,2)	(444,1)	(-220,1)	(-94,1)	(208,2)	
L1D -215>	(1,7)	(18,2)	(226,1)	(83,12)	(198,1)	(5,1)	(394,1)	(69,1)	(263,1)	(-1,1)	(140,1)	(1,0)	(1,0)	(1,0)	(1,0)	(1,0)	
L1D -214>	(1,2)	(3,2)	(212,6)	(198,1)	(-80,1)	(82,23)	(197,1)	(210,3)	(218,4)	(226,3)	(208,4)	(54,1)	(196,2)	(214,5)	(-232,1)	(-118,1)	
L1D -213>	(81,17)	(1,3)	(187,1)	(86,1)	(250,1)	(197,1)	(145,1)	(113,1)	(5,1)	(2,1)	(220,1)	(4,2)	(216,1)	(224,1)	(1,0)	(1,0)	
L1D -212>	(80,24)	(1,5)	(194,1)	(208,4)	(4,1)	(132,1)	(234,1)	(210,3)	(213,2)	(-182,1)	(-178,1)	(206,2)	(232,3)	(222,1)	(226,1)	(198,2)	
L1D -211>	(1,5)	(79,26)	(212,1)	(182,1)	(-1,7)	(3,6)	(80,1)	(93,1)	(313,1)	(-2,1)	(2,1)	(-7,1)	(6,6)	(164,1)	(204,1)	(1,0)	
L1D -210>	(1,2)	(78,20)	(216,1)	(13,1)	(51,1)	(208,3)	(196,1)	(-278,1)	(14,2)	(68,1)	(206,4)	(192,1)	(200,1)	(178,1)	(210,1)	(214,3)	
L1D -209>	(316,1)	(184,2)	(1,3)	(208,1)	(185,1)	(-5,1)	(191,1)	(2,3)	(-156,1)	(6,1)	(3,5)	(0,1)	(188,1)	(205,1)	(9,1)	(249,1)	
L1D -208>	(1,3)	(194,3)	(476,1)	(-220,1)	(222,1)	(3,4)	(226,1)	(218,1)	(196,3)	(142,1)	(220,1)	(-6,1)	(204,1)	(210,1)	(208,3)	(-62,1)	
L1D -207>	(-66,1)	(321,1)	(1,2)	(-168,1)	(356,1)	(8,2)	(202,1)	(-279,1)	(38,1)	(173,1)	(148,1)	(75,4)	(34,1)	(18,1)	(201,1)	(63,1)	
L1D -206>	(1,14)	(210,1)	(207,1)	(209,1)	(218,4)	(170,1)	(190,2)	(204,2)	(228,1)	(176,1)	(393,1)	(387,1)	(188,1)	(3,4)	(146,2)	(2,1)	
L1D -205>	(73,2)	(1,9)	(218,1)	(-150,1)	(6,2)	(-2,3)	(96,1)	(3,2)	(296,1)	(180,1)	(-64,1)	(29,1)	(4,4)	(142,1)	(2,1)	(290,1)	
L1D -204>	(198,1)	(1,3)	(208,1)	(124,1)	(206,3)	(190,1)	(196,1)	(-34,1)	(214,5)	(216,5)	(71,1)	(204,3)	(300,1)	(37,1)	(417,1)	(32,1)	
L1D -203>	(1,7)	(69,1)	(331,1)	(2,3)	(55,1)	(3,3)	(218,1)	(42,1)	(166,1)	(10,1)	(75,1)	(8,1)	(48,1)	(51,1)	(6,1)	(326,1)	
L1D -202>	(1,6)	(-98,1)	(330,3)	(321,1)	(240,2)	(206,4)	(310,1)	(194,5)	(-250,1)	(89,1)	(172,1)	(202,3)	(289,1)	(-174,1)	(105,1)	(56,2)	
L1D -201>	(1,1)	(60,1)	(144,1)	(-232,1)	(210,1)	(2,1)	(-304,1)	(200,1)	(36,1)	(20,1)	(192,1)	(51,1)	(6,1)	(1,0)	(1,0)	(1,0)	
L1D -200>	(210,2)	(46,1)	(186,4)	(214,1)	(212,3)	(262,1)	(182,1)	(202,2)	(156,1)	(178,2)	(132,1)	(201,3)	(192,1)	(226,1)	(234,1)	(120,1)	
L1D -199>	(18,2)	(327,1)	(1,2)	(23,1)	(115,1)	(85,1)	(89,1)	(-294,1)	(-1,1)	(87,1)	(12,1)	(218,1)	(110,1)	(2,1)	(5,1)	(186,1)	
L1D -198>	(1,2)	(218,1)	(178,1)	(210,1)	(478,1)	(192,2)	(60,1)	(220,1)	(3,1)	(188,1)	(300,1)	(198,2)	(224,2)	(228,1)	(215,1)	(-288,1)	
L1D -197>	(288,1)	(102,1)	(3,1)	(1,2)	(76,1)	(65,3)	(325,1)	(2,1)	(-5,1)	(6,1)	(187,1)	(-206,1)	(86,1)	(-253,1)	(285,1)	(63,1)	
L1D -196>	(-2,2)	(120,1)	(200,3)	(178,2)	(-312,1)	(214,4)	(204,2)	(149,1)	(7,1)	(-305,1)	(208,3)	(184,2)	(4,1)	(150,1)	(324,1)	(198,2)	
L1D -195>	(1,3)	(-20,1)	(95,1)	(115,1)	(8,1)	(106,1)	(361,1)	(323,3)	(3,2)	(-284,1)	(280,2)	(352,1)	(-16,1)	(211,1)	(14,1)	(289,1)	
L1D -194>	(200,4)	(62,2)	(117,1)	(60,1)	(-309,1)	(196,1)	(52,1)	(180,2)	(189,2)	(436,1)	(1,4)	(91,1)	(190,3)	(206,1)	(140,1)	(210,2)	
L1D -193>	(152,1)	(229,1)	(219,1)	(51,1)	(190,1)	(4,2)	(-7,1)	(52,1)	(186,1)	(61,1)	(-15,1)	(279,1)	(3,2)	(9,1)	(280,2)	(38,1)	
L1D -192>	(1,6)	(196,1)	(324,1)	(38,1)	(34,1)	(190,2)	(180,2)	(202,2)	(193,2)	(-22,1)	(218,2)	(220,1)	(454,1)	(182,1)	(9,1)	(181,1)	
L1D -191>	(69,2)	(1,6)	(23,1)	(3,3)	(192,1)	(282,2)	(216,1)	(-102,1)	(119,1)	(291,1)	(2,1)	(41,1)	(120,1)	(-148,1)	(102,1)	(118,1)	
L1D -190>	(192,2)	(1,2)	(200,1)	(16,1)	(-3,1)	(158,1)	(216,1)	(-34,1)	(180,2)	(76,1)	(466,1)	(-64,1)	(210,1)	(4,1)	(20,1)	(191,2)	
L1D -189>	(366,1)	(4,1)	(169,1)	(283,1)	(-292,1)	(102,1)	(458,1)	(117,1)	(154,1)	(122,1)	(3,1)	(12,1)	(124,1)	(1,0)	(1,0)	(1,0)	
L1D -188>	(1,2)	(9,1)	(192,2)	(-292,1)	(105,1)	(136,1)	(189,1)	(202,2)	(158,1)	(186,1)	(87,1)	(166,1)	(206,1)	(200,2)	(188,1)	(8,1)	
L1D -187>	(1,4)	(90,2)	(37,1)	(26,1)	(138,1)	(-320,1)	(-16,1)	(104,1)	(156,1)	(292,1)	(150,1)	(0,1)	(283,1)	(46,1)	(53,1)	(1,0)	
L1D -186>	(18,1)	(67,1)	(184,3)	(314,2)	(204,2)	(174,1)	(-32,1)	(178,2)	(226,1)	(480,1)	(80,1)	(29,1)	(468,1)	(121,1)	(188,2)	(4,3)	
L1D -185>	(9,1)	(127,1)	(171,1)	(83,1)	(197,1)	(-45,1)	(281,1)	(176,1)	(39,1)	(279,1)	(125,1)	(8,1)	(92,1)	(37,1)	(280,1)	(97,1)	
L1D -184>	(3,2)	(366,1)	(113,1)	(94,1)	(166,1)	(279,1)	(220,1)	(141,1)	(190,3)	(198,3)	(68,2)	(60,1)	(98,1)	(188,3)	(428,1)	(240,1)	
L1D -183>	(1,5)	(161,1)	(224,1)	(18,1)	(88,1)	(177,1)	(8,2)	(126,1)	(311,1)	(51,3)	(53,1)	(114,1)	(148,1)	(107,1)	(-191,1)	(-24,1)	
L1D -182>	(1,5)	(9,1)	(117,1)	(42,1)	(142,1)	(190,1)	(208,1)	(20,1)	(-284,1)	(191,1)	(123,1)	(138,1)	(388,1)	(180,2)	(-304,1)	(248,1)	
L1D -181>	(288,1)	(49,2)	(214,1)	(-2,5)	(105,1)	(-1,1)	(191,1)	(176,1)	(1,4)	(-303,1)	(153,1)	(218,1)	(8,1)	(175,1)	(19,1)	(286,1)	
L1D -180>	(200,1)	(171,1)	(143,1)	(98,1)	(188,1)	(-110,1)	(107,1)	(6,3)	(174,1)	(-80,1)	(92,1)	(218,1)	(180,1)	(36,1)	(-10,2)	(104,2)	
L1D -179>	(-1,1)	(-325,1)	(1,1)	(37,1)	(47,1)	(73,1)	(118,1)	(119,1)	(133,1)	(236,1)	(192,1)	(-19,1)	(135,1)	(307,2)	(185,1)	(1,0)	
L1D -178>	(1,2)	(70,1)	(182,2)	(188,2)	(142,1)	(0,1)	(281,1)	(-70,1)	(6,2)	(216,1)	(-14,1)	(112,1)	(388,1)	(85,1)	(168,1)	(-2,2)	
L1D -177>	(29,1)	(47,1)	(1,6)	(305,1)	(5,4)	(31,1)	(18,1)	(35,1)	(97,1)	(55,1)	(3,1)	(45,1)	(2,2)	(119,1)	(20,1)	(152,1)	
L1D -176>	(166,1)	(1,2)	(98,1)	(6,4)	(392,1)	(-302,1)	(105,1)	(210,1)	(498,1)	(-1,3)	(42,1)	(24,1)	(108,1)	(9,1)	(107,1)	(134,3)	
L1D -175>	(1,9)	(303,2)	(-2,5)	(51,1)	(3,9)	(393,1)	(159,1)	(212,1)	(133,1)	(21,1)	(24,1)	(6,1)	(208,1)	(416,1)	(45,1)	(2,2)	
L1D -174>	(1,2)	(96,1)	(163,1)	(124,1)	(113,1)	(38,1)	(-15,1)	(-24,1)	(302,1)	(72,1)	(61,1)	(20,1)	(11,2)	(376,1)	(44,1)	(22,1)	
L1D -173>	(9,2)	(1,19)	(83,2)	(112,1)	(34,1)	(94,1)	(136,1)	(117,1)	(13,1)	(161,2)	(149,1)	(110,1)	(301,3)	(-286,1)	(199,1)	(76,1)	
L1D -172>	(1,6)	(54,2)	(-321,1)	(2,4)	(164,1)	(-48,1)	(153,1)	(183,1)	(300,2)	(126,1)	(178,1)	(-40,2)	(43,1)	(-319,1)	(9,2)	(40,1)	
L1D -171>	(-83,1)	(299,2)	(1,3)	(276,1)	(122,1)	(-1,2)	(283,1)	(162,1)	(88,1)	(-290,1)	(39,1)	(-312,1)	(1,0)	(1,0)	(1,0)	(1,0)	
L1D -170>	(6,2)	(55,2)	(3,2)	(82,2)	(278,1)	(438,1)	(-10,1)	(152,1)	(14,1)	(122,1)	(-54,1)	(-1,7)	(84,1)	(40,1)	(30,2)	(47,1)	
L1D -169>	(-121,1)	(1,1)	(98,1)	(-321,1)	(93,1)	(-7,1)	(100,1)	(67,1)	(72,1)	(120,1)	(162,1)	(420,1)	(47,1)	(216,1)	(1,0)	(1,0)	
L1D -168>	(-7,1)	(359,1)	(296,3)	(2,5)	(68,1)	(32,1)	(9,1)	(-46,1)	(3,1)	(172,3)	(45,1)	(77,1)	(378,1)	(384,2)	(180,1)	(-1,2)	
L1D -167>	(1,3)	(-42,1)	(-1,3)	(3,1)	(78,1)	(145,1)	(282,1)	(128,1)	(-28,1)	(82,1)	(113,1)	(-19,1)	(65,1)	(46,1)	(24,1)	(35,2)	
L1D -166>	(2,6)	(280,1)	(-19,2)	(1,6)	(110,1)	(88,2)	(14,1)	(-24,1)	(96,1)	(34,2)	(294,3)	(283,1)	(-283,1)	(35,1)	(-2,2)	(20,2)	
L1D -165>	(1,5)	(273,1)	(293,3)	(263,1)	(14,1)	(-39,1)	(2,1)	(61,1)	(-89,1)	(33,7)	(162,1)	(180,1)	(37,1)	(52,1)	(-318,1)	(4,1)	
L1D -164>	(32,6)	(160,2)	(1,10)	(-100,1)	(113,1)	(124,1)	(2,8)	(68,1)	(-92,1)	(62,1)	(292,5)	(-2,1)	(56,1)	(186,1)	(-35,1)	(-6,3)	
L1D -163>	(159,7)	(291,29)	(2,3)	(1,7)	(-130,1)	(-104,1)	(97,1)	(117,1)	(-91,1)	(127,1)	(11,1)	(168,1)	(31,1)	(-1,2)	(-132,1)	(-105,1)	
L1D -162>	(1,3)	(158,4)	(3,1)	(290,67)	(5,1)	(44,1)	(98,1)	(-92,1)	(92,1)	(4,4)	(120,1)	(-342,0)	(174,1)	(78,0)	(115,0)	(30,2)	
L1D -161>	(289,82)	(-111,1)	(7,1)	(4,1)	(1,1)	(-94,1)	(157,12)	(138,1)	(31,1)	(128,1)	(275,1)	(-33,1)	(-126,1)	(-89,1)	(204,0)	(-116,0)	
L1D -160>	(288,70)	(156,12)	(-23,1)	(-40,1)	(-119,1)	(24,0)	(-107,0)	(-125,1)	(96,0)	(184,0)	(1,1)	(3,1)	(186,1)	(-18,0)	(162,1)	(28,1)	
L1D -159>	(50,1)	(287,121)	(27,2)	(155,9)	(-1,1)	(-118,1)	(-95,1)	(-91,1)	(-133,1)	(-98,1)	(110,1)	(123,1)	(-112,1)	(-104,1)	(18,1)	(196,1)	
L1D -158>	(154,6)	(286,70)	(162,2)	(199,1)	(416,1)	(1,2)	(82,0)	(-119,0)	(26,0)	(-108,0)	(-28,0)	(4,0)	(-21,0)	(20,0)	(118,0)	(3,0)	
L1D -157>	(-128,1)	(2,2)	(285,97)	(161,1)	(153,15)	(-95,1)	(137,1)	(292,1)	(-117,1)	(-290,1)	(25,2)	(-130,1)	(289,1)	(-124,0)	(55,0)	(-126,0)	
L1D -156>	(284,91)	(95,1)	(-112,1)	(15,1)	(-107,1)	(160,2)	(152,11)	(-74,1)	(288,1)	(273,1)	(-132,1)	(-110,1)	(-101,1)	(-135,1)	(-31,0)	(7,0)	
L1D -155>	(159,3)	(287,2)	(283,70)	(1,1)	(-124,1)	(151,9)	(71,0)	(-110,0)	(-112,0)	(-19,0)	(3,0)	(-118,0)	(-125,0)	(-108,0)	(131,0)	(-105,0)	
L1D -154>	(158,2)	(150,15)	(140,1)	(-135,1)	(476,1)	(-218,1)	(282,104)	(-99,1)	(-326,1)	(286,5)	(-111,1)	(-122,1)	(-130,1)	(61,1)	(-16,1)	(77,1)	
L1D -153>	(157,4)	(285,2)	(281,94)	(-127,1)	(-97,1)	(81,1)	(149,11)	(-99,1)	(60,1)	(-114,1)	(153,1)	(423,1)	(1,1)	(-14,1)	(291,1)	(97,1)	
L1D -152>	(280,71)	(156,4)	(-132,1)	(284,1)	(-5,1)	(148,13)	(96,1)	(-116,1)	(-41,1)	(-24,1)	(292,0)	(-137,0)	(10,0)	(423,1)	(72,0)	(430,0)	
L1D -151>	(155,3)	(-61,1)	(279,99)	(3,1)	(283,4)	(147,17)	(-121,1)	(-117,1)	(1,3)	(-128,1)	(292,2)	(-123,1)	(120,1)	(-125,1)	(-122,0)	(72,0)	
L1D -150>	(-139,1)	(122,1)	(278,119)	(282,3)	(154,7)	(42,1)	(146,16)	(0,1)	(-111,1)	(66,1)	(-129,1)	(1,1)	(288,1)	(14,1)	(8,1)	(-106,1)	
L1D -149>	(153,6)	(281,4)	(19,1)	(277,115)	(88,1)	(-136,1)	(1,1)	(-133,1)	(-141,1)	(50,1)	(145,23)	(285,3)	(-130,1)	(110,1)	(290,1)	(-139,2)	
L1D -148>	(276,69)	(152,9)	(280,5)	(1,0)	(38,0)	(144,14)	(2,0)	(52,0)	(284,1)	(6,0)	(192,0)	(-132,0)	(-108,0)	(291,1)	(3,1)	(34,0)	
L1D -147>	(143,19)	(279,7)	(275,125)	(151,7)	(-117,1)	(-126,1)	(291,1)	(12,1)	(283,2)	(59,1)	(-110,1)	(418,1)	(46,1)	(131,1)	(-133,1)	(217,1)	
L1D -146>	(274,91)	(278,6)	(150,13)	(-50,1)	(142,13)	(1,1)	(3,1)	(133,1)	(422,1)	(292,4)	(-28,1)	(-108,1)	(-114,2)	(282,2)	(162,1)	(72,1)	
L1D -145>	(277,8)	(141,9)	(3,2)	(281,1)	(135,1)	(149,7)	(273,69)	(-41,1)	(291,1)	(-126,1)	(67,1)	(-121,1)	(-131,1)	(13,0)	(-125,0)	(421,0)	
L1D -144>	(276,15)	(-80,1)	(272,108)	(148,10)	(280,5)	(-112,1)	(77,1)	(168,1)	(-118,2)	(290,5)	(1,4)	(67,1)	(3,1)	(-78,1)	(40,2)	(140,23)	
L1D -143>	(139,10)	(275,15)	(2,4)	(1,2)	(-116,1)	(147,15)	(271,69)	(-122,1)	(279,6)	(424,2)	(-137,1)	(270,1)	(8,1)	(285,2)	(-57,2)	(286,1)	
L1D -142>	(-153,2)	(146,13)	(278,9)	(270,63)	(274,7)	(24,1)	(290,5)	(417,1)	(-308,1)	(423,2)	(287,1)	(413,1)	(-140,1)	(283,1)	(84,1)	(285,6)	
L1D -141>	(137,5)	(145,9)	(1,2)	(269,46)	(288,1)	(102,1)	(273,8)	(62,1)	(285,3)	(286,2)	(290,4)	(138,1)	(281,3)	(424,1)	(416,1)	(-45,1)	
L1D -140>	(288,2)	(144,14)	(272,10)	(276,10)	(-4,1)	(-43,1)	(9,2)	(285,5)	(-18,1)	(1,1)	(-145,1)	(134,1)	(174,1)	(-1,5)	(286,3)	(440,2)	
L1D -139>	(286,5)	(1,3)	(275,9)	(6,2)	(143,5)	(287,2)	(285,1)	(106,1)	(292,6)	(416,4)	(-22,1)	(283,2)	(411,1)	(290,5)	(284,3)	(53,1)	
L1D -138>	(270,5)	(33,1)	(15,2)	(108,1)	(420,1)	(266,2)	(28,1)	(226,1)	(290,5)	(284,3)	(224,1)	(486,1)	(-1,3)	(-6,1)	(184,1)	(194,1)	
L1D -137>	(282,3)	(269,4)	(287,2)	(279,3)	(141,5)	(280,1)	(46,1)	(416,1)	(80,1)	(420,1)	(277,1)	(418,1)	(292,3)	(294,1)	(-35,1)	(276,1)	
L1D -136>	(2,4)	(3,2)	(292,1)	(268,1)	(96,2)	(284,2)	(419,2)	(1,1)	(-60,1)	(411,1)	(178,1)	(406,2)	(64,1)	(-331,1)	(192,1)	(104,1)	
L1D -135>	(419,1)	(278,1)	(1,3)	(289,3)	(271,7)	(69,1)	(162,1)	(174,1)	(120,1)	(287,4)	(286,3)	(283,4)	(63,1)	(-73,1)	(42,1)	(-297,1)	
L1D -134>	(412,2)	(106,1)	(1,1)	(138,4)	(418,2)	(270,3)	(151,1)	(283,3)	(287,2)	(289,3)	(-22,1)	(170,2)	(290,3)	(-12,1)	(278,2)	(286,4)	
L1D -133>	(285,4)	(2,2)	(275,1)	(1,3)	(-78,1)	(286,5)	(261,3)	(-104,1)	(137,1)	(279,3)	(121,1)	(79,1)	(-38,1)	(281,5)	(287,1)	(284,4)	
L1D -132>	(4,102)	(290,1)	(-156,1)	(412,0)	(18,0)	(-144,0)	(-149,0)	(280,0)	(-145,0)	(-153,0)	(-146,0)	(407,0)	(-86,0)	(-152,0)	(181,0)	(-150,0)	
L1D -131>	(412,1)	(1,2)	(291,1)	(-239,1)	(270,1)	(288,1)	(75,1)	(406,1)	(279,2)	(405,1)	(271,1)	(283,4)	(408,1)	(-21,1)	(35,1)	(149,1)	
L1D -130>	(421,1)	(275,3)	(60,2)	(403,1)	(283,4)	(1,2)	(-2,6)	(-325,1)	(-299,1)	(-38,1)	(78,1)	(271,3)	(268,1)	(157,1)	(284,3)	(118,1)	
L1D -129>	(275,5)	(257,2)	(277,4)	(1,11)	(2,2)	(-362,1)	(417,1)	(95,1)	(412,1)	(416,2)	(414,1)	(186,1)	(5,2)	(278,4)	(284,3)	(-41,2)	
L1D -128>	(128,93)	(-157,3)	(-156,3)	(271,1)	(-4,5)	(-151,2)	(-159,2)	(-149,4)	(-147,1)	(-152,2)	(-158,3)	(-153,4)	(-145,1)	(-146,2)	(-155,2)	(-148,1)	
L1D -127>	(277,1)	(280,6)	(47,2)	(412,2)	(279,2)	(407,2)	(-288,1)	(259,1)	(1,3)	(276,4)	(278,1)	(406,1)	(274,2)	(286,3)	(3,3)	(16,1)	
L1D -126>	(261,1)	(271,1)	(405,2)	(276,4)	(2,2)	(-52,1)	(284,2)	(30,2)	(1,3)	(399,2)	(415,2)	(412,2)	(403,1)	(254,3)	(286,3)	(54,1)	
L1D -125>	(275,3)	(279,2)	(136,1)	(284,2)	(274,3)	(277,4)	(61,1)	(-112,1)	(413,2)	(1,1)	(404,2)	(398,1)	(289,1)	(22,1)	(95,1)	(25,1)	
L1D -124>	(277,4)	(281,3)	(36,2)	(269,2)	(407,1)	(256,2)	(58,1)	(187,1)	(114,1)	(50,1)	(324,1)	(268,1)	(409,2)	(279,2)	(352,1)	(271,1)	
L1D -123>	(1,2)	(4,2)	(277,2)	(274,2)	(125,2)	(278,2)	(276,4)	(266,1)	(48,1)	(272,2)	(270,1)	(92,1)	(5,1)	(275,6)	(-28,1)	(17,2)	
L1D -122>	(84,2)	(76,1)	(1,7)	(393,1)	(250,4)	(400,1)	(165,1)	(268,2)	(278,3)	(401,2)	(141,1)	(98,2)	(78,2)	(-10,1)	(267,1)	(279,3)	
L1D -121>	(-2,3)	(273,1)	(70,1)	(17,1)	(1,4)	(280,3)	(394,2)	(-84,1)	(274,2)	(82,1)	(-37,1)	(122,1)	(3,4)	(276,1)	(6,2)	(406,2)	
L1D -120>	(23,4)	(273,4)	(277,1)	(1,4)	(26,6)	(258,3)	(276,1)	(190,1)	(252,1)	(266,4)	(272,7)	(-4,2)	(274,3)	(174,2)	(401,1)	(248,1)	
L1D -119>	(1,2)	(275,2)	(52,2)	(267,4)	(407,1)	(126,1)	(200,1)	(270,2)	(7,2)	(94,2)	(-15,1)	(152,1)	(118,1)	(272,2)	(266,8)	(276,3)	
L1D -118>	(271,1)	(-289,1)	(259,3)	(263,1)	(391,1)	(407,1)	(266,3)	(-11,1)	(390,2)	(-6,1)	(250,1)	(-221,1)	(199,1)	(272,1)	(3,1)	(-309,1)	
L1D -117>	(259,2)	(258,1)	(271,2)	(214,1)	(1,5)	(64,1)	(262,3)	(272,3)	(268,3)	(265,3)	(103,1)	(397,1)	(267,7)	(63,1)	(197,1)	(46,1)	
L1D -116>	(272,1)	(120,1)	(73,1)	(269,2)	(244,5)	(41,1)	(169,1)	(264,3)	(210,1)	(126,1)	(208,2)	(-18,2)	(65,1)	(273,2)	(238,1)	(263,3)	
L1D -115>	(263,1)	(399,4)	(261,2)	(243,7)	(-17,1)	(264,6)	(1,1)	(165,1)	(266,2)	(268,2)	(265,1)	(259,1)	(17,1)	(194,1)	(395,1)	(401,1)	
L1D -114>	(269,3)	(168,1)	(242,2)	(174,1)	(389,1)	(128,2)	(13,1)	(392,2)	(123,1)	(268,3)	(-62,1)	(12,1)	(70,1)	(-114,1)	(136,1)	(-42,1)	
L1D -113>	(265,4)	(262,3)	(264,5)	(1,2)	(256,1)	(-307,1)	(266,6)	(38,1)	(28,1)	(-326,1)	(388,1)	(404,1)	(276,1)	(2,1)	(269,3)	(398,1)	
L1D -112>	(1,4)	(270,3)	(260,3)	(256,1)	(76,2)	(266,2)	(193,1)	(98,1)	(16,1)	(-5,1)	(143,1)	(-65,1)	(258,1)	(198,1)	(158,1)	(240,6)	
L1D -111>	(400,3)	(391,2)	(5,5)	(239,3)	(395,3)	(84,1)	(25,1)	(-32,1)	(268,1)	(85,1)	(256,3)	(259,5)	(393,3)	(257,2)	(227,1)	(26,1)	
L1D -110>	(2,2)	(394,1)	(198,1)	(389,1)	(1,3)	(130,2)	(265,4)	(386,1)	(476,1)	(261,3)	(147,1)	(103,1)	(268,3)	(84,2)	(-19,1)	(117,1)	
L1D -109>	(2,4)	(237,3)	(1,2)	(253,1)	(36,1)	(257,4)	(386,1)	(173,1)	(268,3)	(121,1)	(254,3)	(391,1)	(260,3)	(5,4)	(262,3)	(54,1)	
L1D -108>	(1,2)	(263,6)	(88,2)	(253,1)	(-32,1)	(200,1)	(262,1)	(122,2)	(261,7)	(112,1)	(40,1)	(-118,2)	(108,2)	(358,1)	(26,2)	(50,2)	
L1D -107>	(255,2)	(2,2)	(252,1)	(210,1)	(395,1)	(193,1)	(1,8)	(83,1)	(38,1)	(5,3)	(256,2)	(388,1)	(262,7)	(186,1)	(30,1)	(153,1)	
L1D -106>	(1,6)	(234,3)	(-2,2)	(393,2)	(106,1)	(9,1)	(-16,1)	(-136,1)	(255,3)	(264,2)	(386,2)	(-34,1)	(318,1)	(22,1)	(-50,2)	(-102,1)	
L1D -105>	(263,2)	(151,1)	(259,6)	(60,1)	(391,2)	(1,3)	(255,5)	(-5,1)	(260,2)	(262,3)	(2,1)	(233,3)	(119,1)	(387,1)	(93,1)	(264,2)	
L1D -104>	(136,112)	(-142,5)	(4,6)	(-145,1)	(-136,3)	(-27,1)	(-137,3)	(-143,2)	(256,2)	(-140,5)	(-139,4)	(-141,1)	(255,1)	(-148,4)	(-135,5)	(-134,2)	
L1D -103>	(2,2)	(256,4)	(1,8)	(231,11)	(251,1)	(255,4)	(-408,1)	(-61,1)	(18,1)	(-76,1)	(418,1)	(162,1)	(-117,1)	(259,1)	(102,1)	(169,1)	
L1D -102>	(2,2)	(16,4)	(-12,1)	(230,4)	(97,1)	(234,1)	(251,4)	(1,3)	(446,1)	(6,2)	(254,3)	(396,1)	(-59,1)	(100,2)	(-104,1)	(152,1)	
L1D -101>	(-1,3)	(385,1)	(250,1)	(1,6)	(-410,1)	(233,1)	(205,1)	(255,5)	(17,1)	(-52,2)	(-29,1)	(229,3)	(-5,1)	(260,2)	(-397,1)	(251,1)	
L1D -100>	(252,5)	(16,2)	(-134,1)	(2,3)	(1,5)	(-411,1)	(-1,5)	(93,1)	(253,4)	(-18,1)	(184,1)	(-10,1)	(128,2)	(60,2)	(254,1)	(-95,1)	
L1D -99>	(253,2)	(264,1)	(252,3)	(261,1)	(71,1)	(-246,1)	(1,4)	(227,5)	(192,1)	(38,1)	(193,1)	(-412,1)	(256,3)	(-36,1)	(7,1)	(258,2)	
L1D -98>	(2,2)	(230,2)	(10,2)	(252,1)	(102,3)	(1,1)	(58,1)	(-413,1)	(250,2)	(249,2)	(-94,1)	(258,1)	(251,3)	(-118,1)	(186,1)	(226,2)	
L1D -97>	(249,8)	(1,6)	(42,1)	(82,1)	(-51,1)	(248,1)	(252,1)	(-414,1)	(250,4)	(-118,1)	(254,3)	(225,4)	(3,1)	(255,3)	(-62,1)	(-89,1)	
L1D -96>	(1,4)	(110,1)	(102,1)	(91,1)	(17,1)	(53,1)	(-16,2)	(-415,1)	(251,1)	(2,2)	(74,1)	(250,2)	(8,2)	(-18,1)	(6,2)	(52,1)	
L1D -95>	(92,1)	(227,1)	(85,1)	(144,1)	(1,5)	(223,4)	(-336,1)	(129,1)	(249,2)	(17,1)	(155,1)	(-17,1)	(-414,1)	(22,1)	(-38,1)	(-392,1)	
L1D -94>	(166,3)	(1,2)	(248,1)	(226,1)	(442,1)	(-68,1)	(3,2)	(252,1)	(-102,1)	(102,2)	(-30,1)	(250,1)	(79,1)	(-2,2)	(-417,1)	(466,1)	
L1D -93>	(83,2)	(250,4)	(86,2)	(222,1)	(69,1)	(225,1)	(27,1)	(94,2)	(67,1)	(164,1)	(221,4)	(39,1)	(109,2)	(249,1)	(255,1)	(247,2)	
L1D -92>	(1,8)	(-2,2)	(25,1)	(-1,1)	(35,1)	(-96,1)	(-263,1)	(116,1)	(84,1)	(340,3)	(384,1)	(21,1)	(126,1)	(249,4)	(-343,1)	(354,1)	
L1D -91>	(2,2)	(246,4)	(152,1)	(-34,1)	(223,1)	(112,1)	(1,3)	(219,4)	(382,1)	(282,1)	(170,1)	(378,2)	(37,1)	(-40,1)	(-85,1)	(248,1)	
L1D -90>	(58,2)	(-96,1)	(218,3)	(246,1)	(132,2)	(83,1)	(134,2)	(60,1)	(100,1)	(84,1)	(49,1)	(1,1)	(-346,1)	(19,1)	(32,2)	(-36,1)	
L1D -89>	(217,3)	(2,2)	(1,2)	(-62,1)	(159,1)	(77,2)	(-131,1)	(378,2)	(154,1)	(-40,1)	(83,2)	(-422,1)	(190,1)	(-1,1)	(75,1)	(177,1)	
L1D -88>	(246,3)	(1,14)	(216,5)	(137,1)	(-34,1)	(-27,1)	(-15,1)	(-44,1)	(11,1)	(318,1)	(49,1)	(148,1)	(78,1)	(-6,3)	(32,1)	(247,3)	
L1D -87>	(31,1)	(166,1)	(1,10)	(49,1)	(41,1)	(-124,1)	(-34,1)	(215,5)	(-11,1)	(-31,1)	(113,1)	(2,4)	(-107,1)	(-303,1)	(101,1)	(-119,1)	
L1D -86>	(214,7)	(7,1)	(90,4)	(144,1)	(1,8)	(82,1)	(138,1)	(-10,1)	(-38,1)	(60,3)	(25,1)	(24,2)	(128,1)	(-342,1)	(3,1)	(94,2)	
L1D -85>	(-16,2)	(213,7)	(1,11)	(3,4)	(244,1)	(-42,1)	(-108,1)	(-5,1)	(199,1)	(-27,1)	(143,1)	(-30,1)	(-2,3)	(127,1)	(-328,1)	(43,1)	
L1D -84>	(126,3)	(212,9)	(3,2)	(110,1)	(185,1)	(1,6)	(-37,1)	(30,1)	(68,1)	(300,1)	(16,1)	(-394,1)	(86,1)	(-127,1)	(-35,1)	(168,2)	
L1D -83>	(1,6)	(81,1)	(-29,1)	(211,7)	(32,1)	(109,1)	(-340,1)	(-93,1)	(140,1)	(111,1)	(-18,1)	(28,1)	(3,1)	(46,1)	(-428,1)	(-351,1)	
L1D -82>	(130,1)	(214,2)	(116,1)	(210,1)	(63,1)	(1,3)	(103,1)	(-108,1)	(62,1)	(110,1)	(156,1)	(-15,1)	(-50,1)	(-42,3)	(31,1)	(-16,1)	
L1D -81>	(60,1)	(34,1)	(94,1)	(219,1)	(1,9)	(18,1)	(213,1)	(41,3)	(-111,1)	(-57,1)	(198,1)	(-19,1)	(39,1)	(15,1)	(-283,1)	(137,1)	
L1D -80>	(2,4)	(1,6)	(8,2)	(188,1)	(122,2)	(-40,1)	(-112,2)	(32,1)	(-20,2)	(81,2)	(-54,1)	(147,1)	(164,2)	(34,1)	(114,1)	(50,1)	
L1D -79>	(1,7)	(2,2)	(-59,1)	(211,1)	(101,1)	(13,1)	(380,1)	(-137,1)	(112,1)	(-1,1)	(18,1)	(-147,1)	(97,1)	(-53,1)	(-386,1)	(-39,1)	
L1D -78>	(4,2)	(72,1)	(-126,1)	(1,12)	(368,1)	(-152,1)	(-48,1)	(-68,2)	(148,1)	(-264,1)	(18,2)	(-9,1)	(152,2)	(-32,1)	(28,1)	(62,1)	
L1D -77>	(2,2)	(1,3)	(-1,1)	(179,1)	(72,1)	(15,1)	(-110,1)	(12,1)	(-76,1)	(-89,1)	(-321,1)	(93,1)	(26,1)	(22,1)	(-25,1)	(76,2)	
L1D -76>	(0,2)	(-8,2)	(1,1)	(138,1)	(-282,1)	(-4,1)	(4,2)	(-34,1)	(157,1)	(18,2)	(68,2)	(14,2)	(22,3)	(148,1)	(64,1)	(-2,2)	
L1D -75>	(-348,1)	(145,1)	(-18,1)	(1,3)	(-76,1)	(82,1)	(34,1)	(2,5)	(38,1)	(23,1)	(18,1)	(182,1)	(-54,1)	(46,1)	(122,1)	(200,1)	
L1D -74>	(96,2)	(8,4)	(2,2)	(70,1)	(-86,1)	(-96,1)	(-4,3)	(80,1)	(46,3)	(114,1)	(150,1)	(165,1)	(-62,1)	(-51,2)	(1,6)	(-11,1)	
L1D -73>	(1,40)	(2,2)	(-1,1)	(-16,1)	(172,1)	(90,1)	(32,1)	(94,1)	(121,1)	(-6,2)	(-46,1)	(112,1)	(68,1)	(12,1)	(-99,1)	(125,1)	
L1D -72>	(3,2)	(5,21)	(1,8)	(96,1)	(109,1)	(-426,1)	(94,2)	(-114,1)	(113,1)	(108,1)	(54,1)	(33,1)	(181,1)	(20,2)	(-100,1)	(-18,2)	
L1D -71>	(12,1)	(256,1)	(-48,1)	(1,7)	(5,2)	(140,1)	(186,1)	(-38,1)	(-150,1)	(-55,1)	(2,3)	(145,1)	(27,1)	(-85,1)	(193,1)	(55,1)	
L1D -70>	(2,2)	(134,1)	(112,1)	(8,2)	(1,16)	(-51,2)	(-37,1)	(10,1)	(50,3)	(-32,1)	(74,2)	(-12,3)	(460,1)	(67,1)	(236,1)	(4,2)	
L1D -69>	(2,10)	(1,13)	(-1,2)	(9,1)	(113,1)	(54,2)	(-119,1)	(147,1)	(11,1)	(-24,1)	(-86,1)	(74,1)	(-70,1)	(16,1)	(-34,1)	(-49,1)	
L1D -68>	(2,3)	(34,1)	(-136,1)	(92,1)	(1,6)	(174,1)	(119,1)	(27,1)	(159,1)	(12,2)	(127,1)	(54,2)	(308,1)	(180,1)	(96,2)	(-68,1)	
L1D -67>	(6,9)	(2,2)	(53,1)	(169,1)	(-49,1)	(-11,1)	(85,1)	(1,10)	(-72,1)	(-6,1)	(3,2)	(102,1)	(75,1)	(-268,1)	(-222,1)	(-28,2)	
L1D -66>	(37,4)	(2,4)	(88,2)	(138,2)	(-36,1)	(12,2)	(-48,1)	(-101,1)	(67,3)	(1,12)	(5,1)	(50,1)	(75,1)	(174,1)	(18,1)	(160,1)	
L1D -65>	(30,2)	(82,1)	(-42,1)	(1,4)	(103,1)	(169,1)	(39,1)	(-427,1)	(179,1)	(154,1)	(-20,1)	(-253,1)	(85,2)	(202,1)	(2,1)	(-137,1)	
L1D -64>	(1,11)	(60,4)	(24,3)	(-2,2)	(-16,1)	(-164,1)	(100,1)	(34,1)	(156,1)	(-326,1)	(-21,1)	(80,1)	(406,1)	(-152,1)	(112,2)	(175,1)	
L1D -63>	(51,3)	(-1,2)	(63,4)	(50,3)	(1,2)	(41,1)	(124,1)	(5,4)	(3,1)	(-78,1)	(129,1)	(-341,1)	(168,1)	(52,1)	(113,1)	(111,1)	
L1D -62>	(148,1)	(122,2)	(66,1)	(157,1)	(41,1)	(57,1)	(56,1)	(-56,2)	(19,1)	(1,4)	(-14,2)	(-10,1)	(-110,1)	(68,1)	(-7,1)	(12,1)	
L1D -61>	(-317,1)	(189,2)	(2,8)	(1,4)	(-20,1)	(73,1)	(-33,1)	(-11,1)	(7,1)	(-111,1)	(49,1)	(51,1)	(70,1)	(-27,1)	(-40,1)	(-1,2)	
L1D -60>	(2,2)	(-50,1)	(1,5)	(50,1)	(204,2)	(92,1)	(117,1)	(106,1)	(-258,1)	(356,1)	(-138,1)	(-38,2)	(176,1)	(-100,2)	(-74,1)	(428,1)	
L1D -59>	(1,11)	(52,4)	(2,4)	(153,2)	(36,1)	(136,1)	(22,1)	(171,1)	(-1,2)	(-51,1)	(94,1)	(33,1)	(79,1)	(116,1)	(56,1)	(20,1)	
L1D -58>	(6,5)	(10,2)	(43,1)	(-32,2)	(1,1)	(154,1)	(2,3)	(-202,1)	(-2,6)	(288,1)	(36,2)	(73,1)	(48,4)	(86,2)	(-51,1)	(150,1)	
L1D -57>	(1,4)	(72,1)	(76,1)	(-37,1)	(141,1)	(47,1)	(-28,1)	(84,2)	(125,1)	(180,1)	(171,1)	(44,1)	(8,1)	(116,1)	(74,1)	(-239,1)	
L1D -56>	(3,2)	(6,4)	(2,4)	(1,34)	(26,2)	(25,2)	(-84,1)	(51,1)	(49,1)	(8,1)	(88,2)	(69,1)	(278,1)	(-96,1)	(16,3)	(153,1)	
L1D -55>	(16,2)	(1,5)	(2,2)	(-6,1)	(44,2)	(34,1)	(-33,1)	(45,2)	(40,1)	(14,1)	(3,1)	(-10,2)	(200,1)	(-138,1)	(7,2)	(65,1)	
L1D -54>	(49,2)	(1,5)	(-169,1)	(-160,1)	(116,1)	(113,1)	(-299,1)	(-1,1)	(-34,2)	(140,1)	(72,1)	(22,1)	(56,1)	(48,1)	(52,1)	(84,1)	
L1D -53>	(1,4)	(-361,1)	(-79,1)	(4,3)	(-59,1)	(-90,1)	(-36,1)	(73,1)	(191,1)	(49,1)	(-55,1)	(-333,1)	(-60,1)	(77,1)	(3,6)	(37,1)	
L1D -52>	(270,1)	(70,1)	(-43,1)	(-97,1)	(162,1)	(123,1)	(66,1)	(-289,1)	(16,1)	(38,1)	(-102,1)	(-46,2)	(6,1)	(-12,2)	(-4,1)	(402,1)	
L1D -51>	(1,43)	(39,16)	(41,3)	(2,2)	(-6,1)	(66,1)	(17,1)	(120,1)	(414,1)	(70,1)	(27,1)	(-380,1)	(-57,1)	(4,1)	(53,1)	(-72,1)	
L1D -50>	(10,2)	(38,103)	(1,4)	(-67,1)	(-120,1)	(69,2)	(34,1)	(-303,1)	(168,1)	(104,1)	(58,1)	(4,3)	(208,1)	(74,1)	(-58,1)	(30,2)	
L1D -49>	(3,4)	(125,1)	(116,2)	(-410,1)	(-168,1)	(-355,1)	(1,5)	(84,1)	(-135,1)	(-56,1)	(-39,1)	(-59,1)	(147,1)	(2,4)	(142,1)	(-110,1)	
L1D -48>	(55,1)	(196,1)	(0,1)	(1,1)	(3,2)	(174,1)	(28,1)	(-104,2)	(128,1)	(-122,1)	(270,1)	(65,1)	(67,1)	(-23,1)	(-14,1)	(42,1)	
L1D -47>	(26,2)	(-182,1)	(-79,1)	(1,6)	(47,1)	(2,6)	(122,1)	(-6,1)	(-15,1)	(151,1)	(81,1)	(6,1)	(-453,1)	(168,1)	(-61,1)	(128,1)	
L1D -46>	(7,2)	(1,4)	(-20,1)	(3,4)	(54,1)	(42,1)	(-80,1)	(-52,1)	(45,1)	(23,2)	(-69,1)	(8,2)	(-6,1)	(10,2)	(278,1)	(-117,2)	
L1D -45>	(-89,1)	(148,1)	(1,11)	(-17,1)	(-28,1)	(232,1)	(-107,1)	(-40,1)	(123,1)	(-18,1)	(-11,1)	(-388,1)	(160,1)	(16,1)	(14,1)	(87,1)	
L1D -44>	(1,80)	(162,0)	(-5,0)	(104,0)	(1,0)	(1,0)	(1,0)	(1,0)	(1,0)	(1,0)	(1,0)	(1,0)	(1,0)	(1,0)	(1,0)	(1,0)	
L1D -43>	(1,113)	(117,1)	(-96,1)	(176,1)	(156,1)	(-468,1)	(21,1)	(91,0)	(-75,0)	(-5,0)	(-142,0)	(29,1)	(-287,0)	(42,0)	(98,0)	(9,0)	
L1D -42>	(1,83)	(182,1)	(-74,1)	(44,1)	(-320,1)	(-342,1)	(-8,1)	(-12,1)	(190,1)	(370,1)	(-186,1)	(486,0)	(108,0)	(40,0)	(3,1)	(-102,0)	
L1D -41>	(7,83)	(-28,2)	(65,1)	(36,1)	(1,3)	(-55,1)	(125,1)	(130,1)	(2,3)	(11,1)	(4,1)	(-21,1)	(-5,1)	(-470,1)	(151,1)	(5,1)	
L1D -40>	(78,2)	(3,2)	(66,1)	(1,7)	(-2,7)	(2,6)	(-84,3)	(10,3)	(194,1)	(61,1)	(170,2)	(4,1)	(-7,1)	(-250,1)	(52,1)	(95,3)	
L1D -39>	(1,121)	(129,0)	(27,0)	(17,0)	(-5,22)	(18,13)	(35,14)	(100,0)	(1,0)	(1,0)	(1,0)	(1,0)	(1,0)	(1,0)	(1,0)	(1,0)	
L1D -38>	(-4,8)	(-12,0)	(-1,1)	(17,74)	(-6,107)	(238,0)	(-3,1)	(59,0)	(11,2)	(28,0)	(1,0)	(1,0)	(1,0)	(1,0)	(1,0)	(1,0)	
L1D -37>	(1,9)	(-358,1)	(56,1)	(106,1)	(103,1)	(-2,1)	(23,1)	(-31,1)	(63,1)	(21,1)	(121,1)	(176,1)	(66,1)	(-101,1)	(60,1)	(126,1)	
L1D -36>	(1,10)	(126,1)	(-66,1)	(13,2)	(32,1)	(47,1)	(-57,1)	(-40,1)	(-78,1)	(-428,1)	(-67,2)	(-76,1)	(-50,1)	(-9,1)	(-405,1)	(212,1)	
L1D -35>	(3,82)	(-194,1)	(158,1)	(-476,1)	(6,1)	(58,1)	(-445,0)	(476,0)	(60,0)	(62,0)	(-24,0)	(107,0)	(-336,0)	(-118,0)	(132,0)	(-294,0)	
L1D -34>	(-142,1)	(26,11)	(1,25)	(2,12)	(33,4)	(150,2)	(-80,1)	(49,1)	(107,1)	(126,1)	(68,1)	(8,1)	(233,1)	(83,1)	(-28,2)	(436,1)	
L1D -33>	(81,1)	(2,1)	(33,14)	(83,1)	(-428,1)	(-101,0)	(-20,0)	(5,0)	(85,0)	(-6,114)	(-114,0)	(-24,0)	(115,0)	(99,0)	(144,0)	(-326,0)	
L1D -32>	(24,1)	(-87,1)	(330,1)	(1,115)	(204,1)	(48,1)	(-64,1)	(159,1)	(103,1)	(100,1)	(-8,1)	(-14,1)	(-62,1)	(68,1)	(490,1)	(88,1)	
L1D -31>	(111,1)	(1,14)	(90,1)	(-290,1)	(3,9)	(-1,2)	(173,1)	(-298,1)	(-82,1)	(-412,1)	(6,3)	(-21,1)	(-4,1)	(118,1)	(228,1)	(-364,1)	
L1D -30>	(1,19)	(4,4)	(2,5)	(410,1)	(-2,5)	(132,2)	(30,1)	(224,1)	(15,1)	(-40,1)	(-134,2)	(-129,1)	(40,2)	(-42,2)	(-20,2)	(296,2)	
L1D -29>	(1,68)	(7,1)	(2,3)	(3,2)	(-60,1)	(-118,1)	(51,36)	(-2,1)	(95,1)	(-72,1)	(30,0)	(478,0)	(152,0)	(50,0)	(157,0)	(24,0)	
L1D -28>	(-246,0)	(32,31)	(93,0)	(-456,0)	(1,6)	(48,0)	(198,0)	(46,0)	(8,0)	(94,0)	(20,0)	(50,64)	(4,0)	(3,0)	(-10,0)	(-218,0)	
L1D -27>	(49,69)	(37,0)	(44,0)	(16,2)	(17,1)	(8,0)	(-7,0)	(1,0)	(1,0)	(1,0)	(1,0)	(1,0)	(1,0)	(1,0)	(1,0)	(1,0)	
L1D -26>	(8,116)	(22,2)	(1,3)	(19,2)	(-444,1)	(-158,1)	(4,2)	(27,1)	(-218,1)	(-388,1)	(401,1)	(492,1)	(2,2)	(0,1)	(-18,1)	(-48,2)	
L1D -25>	(1,8)	(-1,3)	(2,3)	(-78,2)	(11,4)	(52,2)	(-60,1)	(-21,1)	(131,1)	(22,1)	(17,1)	(-454,1)	(-39,2)	(-173,1)	(138,1)	(-20,1)	
L1D -24>	(23,29)	(9,1)	(-284,1)	(-3,5)	(-111,1)	(5,105)	(126,1)	(6,2)	(127,1)	(24,3)	(116,1)	(334,1)	(32,2)	(10,1)	(4,1)	(-442,1)	
L1D -23>	(-108,0)	(5,94)	(-3,0)	(45,0)	(-13,0)	(-7,0)	(32,1)	(-4,0)	(-40,0)	(8,0)	(-206,0)	(20,0)	(-130,0)	(1,0)	(1,0)	(1,0)	
L1D -22>	(24,118)	(4,7)	(-2,1)	(-178,2)	(0,5)	(-276,1)	(13,2)	(-6,4)	(-298,1)	(-460,1)	(2,5)	(10,8)	(16,7)	(-344,2)	(8,6)	(-346,1)	
L1D -21>	(-17,0)	(-6,76)	(33,0)	(24,0)	(13,0)	(11,0)	(176,0)	(1,0)	(1,0)	(1,0)	(1,0)	(1,0)	(1,0)	(1,0)	(1,0)	(1,0)	
L1D -20>	(0,74)	(21,13)	(13,27)	(-354,0)	(14,28)	(24,2)	(-52,0)	(16,6)	(-292,0)	(17,1)	(18,1)	(22,2)	(44,0)	(5,0)	(-3,0)	(-323,0)	
L1D -19>	(-8,42)	(-7,0)	(20,75)	(-364,0)	(-1,0)	(0,0)	(18,0)	(14,0)	(-144,0)	(13,3)	(1,0)	(1,0)	(1,0)	(1,0)	(1,0)	(1,0)	
L1D -18>	(-8,35)	(1,7)	(-50,1)	(19,110)	(29,1)	(13,29)	(18,1)	(12,1)	(21,1)	(-328,0)	(134,0)	(22,1)	(14,2)	(0,1)	(40,0)	(2,0)	
L1D -17>	(14,7)	(18,90)	(-71,1)	(-16,0)	(-424,0)	(22,0)	(28,0)	(-14,0)	(3,3)	(8,0)	(11,5)	(50,0)	(-4,0)	(15,0)	(1,0)	(1,0)	
L1D -16>	(17,106)	(14,25)	(-2,0)	(-444,0)	(20,0)	(50,0)	(19,1)	(-342,0)	(13,0)	(49,0)	(18,1)	(10,0)	(1,0)	(1,0)	(1,0)	(1,0)	
L1D -15>	(-8,64)	(13,15)	(87,1)	(-3,3)	(0,7)	(-2,17)	(5,8)	(9,1)	(1,7)	(-288,1)	(120,1)	(8,3)	(-5,22)	(16,1)	(216,1)	(61,1)	
L1D -14>	(19,120)	(-176,1)	(17,5)	(16,29)	(0,0)	(18,52)	(-236,0)	(-3,1)	(-2,1)	(5,0)	(20,5)	(-232,0)	(2,1)	(134,0)	(4,0)	(1,0)	
L1D -13>	(9,1)	(21,79)	(0,0)	(14,111)	(24,2)	(13,1)	(-1,0)	(20,0)	(5,1)	(19,2)	(12,0)	(78,0)	(16,0)	(6,0)	(18,2)	(-2,2)	
L1D -12>	(-192,0)	(-38,6)	(-21,122)	(-250,0)	(-39,2)	(-102,0)	(-44,4)	(250,0)	(6,0)	(-27,3)	(-43,0)	(1,0)	(1,0)	(1,0)	(1,0)	(1,0)	
L1D -11>	(2,2)	(1,24)	(5,4)	(4,2)	(12,4)	(-1,5)	(-72,1)	(-384,1)	(6,2)	(28,23)	(-65,1)	(-330,1)	(-176,1)	(9,1)	(-294,1)	(47,1)	
L1D -10>	(-330,3)	(1,28)	(10,4)	(40,2)	(-188,2)	(-5,3)	(-418,3)	(22,2)	(-364,3)	(8,99)	(-6,8)	(-52,2)	(-268,1)	(-324,2)	(30,3)	(278,1)	
L1D -9>	(11,2)	(65,1)	(39,1)	(6,1)	(1,6)	(-5,124)	(-90,1)	(-490,1)	(-35,1)	(-8,37)	(0,6)	(-384,1)	(4,1)	(5,1)	(-370,0)	(-65,0)	
L1D -8>	(3,80)	(-4,1)	(-302,0)	(-32,1)	(4,0)	(2,0)	(11,6)	(-236,0)	(-28,1)	(-428,0)	(-13,0)	(-5,0)	(18,0)	(-26,0)	(-30,0)	(-312,0)	
L1D -7>	(5,2)	(-13,73)	(1,38)	(-88,0)	(0,2)	(3,6)	(6,1)	(21,0)	(7,23)	(-396,0)	(2,0)	(62,0)	(-8,0)	(1,0)	(1,0)	(1,0)	
L1D -6>	(17,97)	(39,0)	(2,25)	(-14,4)	(7,23)	(-51,0)	(148,0)	(200,0)	(1,2)	(3,2)	(18,0)	(8,0)	(-106,0)	(1,0)	(1,0)	(1,0)	
L1D -5>	(-297,0)	(-3,0)	(5,0)	(13,4)	(3,1)	(6,91)	(0,1)	(7,1)	(21,0)	(-14,1)	(-13,0)	(2,1)	(4,1)	(1,0)	(1,0)	(1,0)	
L1D -4>	(1,5)	(3,7)	(-16,5)	(5,92)	(2,1)	(6,2)	(-4,11)	(16,1)	(7,12)	(-157,1)	(-1,1)	(-104,2)	(0,1)	(-13,1)	(-328,0)	(-19,0)	
L1D -3>	(-1,113)	(1,25)	(-3,51)	(7,0)	(-2,0)	(2,7)	(-82,0)	(8,0)	(-19,0)	(3,2)	(4,35)	(-17,2)	(-20,2)	(24,0)	(-14,55)	(1,0)	
L1D -2>	(-1,22)	(4,27)	(-13,3)	(3,102)	(5,60)	(-497,1)	(20,2)	(16,2)	(-380,1)	(-2,8)	(1,38)	(2,6)	(15,2)	(-18,1)	(6,5)	(8,10)	
L1D -1>	(1,7)	(-1,115)	(4,101)	(-2,4)	(-18,4)	(-26,2)	(22,1)	(3,119)	(34,1)	(-3,48)	(7,12)	(-23,51)	(5,68)	(-5,6)	(-6,6)	(6,34)	
L1D 0>	(-3,2)	(0,108)	(1,15)	(2,0)	(13,2)	(3,0)	(-6,0)	(20,0)	(-208,0)	(1,0)	(1,0)	(1,0)	(1,0)	(1,0)	(1,0)	(1,0)	
L1D 1>	(-6,16)	(1,108)	(4,0)	(-3,1)	(3,2)	(-17,4)	(-4,5)	(7,0)	(0,20)	(-2,3)	(-5,11)	(-18,0)	(2,13)	(-19,0)	(-20,6)	(-7,7)	
L1D 2>	(12,1)	(-428,0)	(-1,25)	(-25,1)	(-16,68)	(-24,0)	(1,112)	(-5,5)	(3,6)	(4,5)	(-18,4)	(-2,3)	(17,0)	(0,4)	(2,18)	(-3,5)	
L1D 3>	(1,98)	(0,40)	(3,81)	(-1,88)	(13,73)	(4,113)	(15,2)	(21,2)	(-17,8)	(-4,17)	(2,47)	(-24,3)	(-19,12)	(-27,2)	(-16,2)	(5,13)	
L1D 4>	(1,38)	(128,38)	(-150,1)	(-156,3)	(-5,2)	(-1,71)	(-3,1)	(-154,0)	(2,7)	(3,37)	(-2,3)	(-152,1)	(4,2)	(-157,0)	(-18,1)	(-216,0)	
L1D 5>	(-1,28)	(-8,92)	(1,110)	(-483,1)	(8,6)	(257,2)	(-5,1)	(-2,93)	(5,1)	(-4,1)	(2,7)	(-3,62)	(-19,4)	(-18,2)	(4,1)	(-6,0)	
L1D 6>	(-438,0)	(-1,24)	(-3,20)	(-7,2)	(-19,5)	(-6,10)	(-4,3)	(-20,6)	(23,0)	(1,97)	(12,0)	(4,1)	(3,0)	(-202,0)	(-2,8)	(5,0)	
L1D 7>	(4,0)	(8,80)	(-6,88)	(7,0)	(-1,10)	(-20,26)	(-88,0)	(-2,1)	(0,25)	(2,2)	(3,9)	(-7,1)	(-3,1)	(13,0)	(1,4)	(1,0)	
L1D 8>	(-21,12)	(-5,11)	(-12,0)	(-14,97)	(3,17)	(6,0)	(-13,0)	(-206,0)	(-346,0)	(-2,6)	(-35,1)	(2,0)	(-20,0)	(-1,2)	(1,4)	(-10,0)	
L1D 9>	(1,70)	(2,29)	(5,9)	(4,5)	(-2,10)	(-35,11)	(50,1)	(8,3)	(11,2)	(-14,6)	(-511,10)	(-1,3)	(-9,2)	(-282,1)	(-70,1)	(3,6)	
L1D 10>	(221,4)	(4,14)	(1,116)	(17,60)	(-1,30)	(3,7)	(60,3)	(10,5)	(2,27)	(-2,45)	(-26,1)	(13,2)	(11,3)	(7,2)	(6,3)	(-18,6)	
L1D 11>	(17,4)	(74,0)	(-84,0)	(22,70)	(1,1)	(-27,5)	(-2,1)	(-19,3)	(-28,4)	(100,0)	(-29,0)	(-24,0)	(-282,0)	(316,0)	(-438,0)	(-36,0)	
L1D 12>	(17,90)	(-495,2)	(221,2)	(1,86)	(-1,4)	(-378,2)	(2,31)	(214,2)	(10,5)	(7,5)	(-16,8)	(-511,2)	(30,1)	(8,10)	(-12,3)	(-177,1)	
L1D 13>	(8,31)	(-13,24)	(1,70)	(0,59)	(104,0)	(6,6)	(3,0)	(4,1)	(7,2)	(2,0)	(11,0)	(5,0)	(-8,0)	(-152,0)	(88,0)	(1,0)	
L1D 14>	(6,1)	(-12,0)	(2,70)	(258,0)	(4,2)	(5,0)	(3,11)	(-372,0)	(-17,0)	(-2,1)	(-264,0)	(-296,0)	(-418,0)	(-26,0)	(1,0)	(1,0)	
L1D 15>	(1,31)	(2,7)	(-2,90)	(-29,1)	(19,1)	(-17,1)	(3,2)	(-10,28)	(-367,1)	(-13,1)	(-20,6)	(4,1)	(-1,1)	(5,3)	(-84,1)	(-15,3)	
L1D 16>	(-6,86)	(-286,1)	(1,70)	(-16,39)	(-262,1)	(-3,0)	(-362,0)	(-14,3)	(19,0)	(-77,0)	(-58,0)	(-81,0)	(2,1)	(-404,0)	(-36,0)	(-456,0)	
L1D 17>	(-27,72)	(-17,0)	(1,15)	(-4,0)	(-3,2)	(22,0)	(-2,0)	(-6,1)	(42,0)	(1,0)	(1,0)	(1,0)	(1,0)	(1,0)	(1,0)	(1,0)	
L1D 18>	(-18,1)	(1,99)	(152,0)	(-474,0)	(100,0)	(-404,0)	(-6,0)	(-5,3)	(-300,0)	(-2,0)	(-336,0)	(-280,0)	(-386,0)	(-15,0)	(-164,0)	(-426,0)	
L1D 19>	(2,0)	(-76,0)	(1,25)	(-12,0)	(11,108)	(-6,3)	(-17,3)	(-5,2)	(-19,1)	(-18,2)	(1,0)	(1,0)	(1,0)	(1,0)	(1,0)	(1,0)	
L1D 20>	(-6,43)	(-7,117)	(-2,39)	(-20,11)	(72,1)	(-16,1)	(-19,0)	(-252,0)	(3,1)	(5,1)	(-1,10)	(2,3)	(6,0)	(4,6)	(-28,0)	(1,0)	
L1D 21>	(1,127)	(-8,23)	(3,24)	(136,0)	(5,0)	(-21,2)	(15,0)	(2,0)	(-3,0)	(-2,0)	(-160,0)	(-28,0)	(1,0)	(1,0)	(1,0)	(1,0)	
L1D 22>	(-56,1)	(-2,0)	(2,1)	(5,1)	(-22,0)	(-302,0)	(356,0)	(-156,0)	(-12,83)	(-34,0)	(18,0)	(12,0)	(-51,0)	(-50,0)	(-16,0)	(1,0)	
L1D 23>	(-18,76)	(-26,20)	(1,20)	(5,1)	(9,2)	(18,1)	(-115,1)	(-386,1)	(137,1)	(-121,0)	(-2,29)	(73,0)	(-1,4)	(-436,0)	(-124,0)	(-191,0)	
L1D 24>	(-2,1)	(-19,122)	(-4,1)	(60,1)	(5,1)	(-1,0)	(-6,0)	(40,0)	(176,0)	(14,0)	(-27,0)	(8,6)	(77,0)	(1,0)	(1,0)	(1,0)	
L1D 25>	(1,57)	(-37,2)	(11,2)	(-500,4)	(-1,11)	(-496,2)	(-497,2)	(-5,1)	(4,8)	(119,1)	(-203,1)	(-38,2)	(-27,1)	(2,6)	(-99,1)	(-9,1)	
L1D 26>	(122,2)	(10,2)	(-27,11)	(1,22)	(2,2)	(-10,2)	(-1,6)	(3,6)	(19,2)	(-35,3)	(15,5)	(-2,67)	(-80,2)	(-30,4)	(-444,2)	(0,1)	
L1D 27>	(4,9)	(1,25)	(-29,5)	(-30,2)	(-28,4)	(-1,6)	(2,11)	(19,2)	(8,1)	(15,1)	(5,3)	(-67,1)	(-58,1)	(30,1)	(-32,4)	(-381,1)	
L1D 28>	(1,20)	(-27,103)	(39,1)	(-1,5)	(-77,1)	(4,3)	(-148,1)	(-4,1)	(-22,2)	(2,5)	(-14,4)	(-41,1)	(22,12)	(-32,1)	(446,1)	(60,1)	
L1D 29>	(2,10)	(11,5)	(1,21)	(-27,15)	(3,10)	(-1,11)	(9,2)	(26,3)	(-34,1)	(-2,76)	(-41,1)	(-49,1)	(-218,1)	(-81,1)	(25,1)	(-99,1)	
L1D 30>	(1,40)	(67,2)	(84,2)	(2,2)	(-164,2)	(-332,2)	(-41,2)	(-6,1)	(-123,1)	(-106,2)	(-98,1)	(-139,2)	(-72,2)	(-128,1)	(0,4)	(-143,1)	
L1D 31>	(1,19)	(-1,5)	(31,2)	(-437,6)	(-80,2)	(-81,1)	(-45,1)	(-109,1)	(-13,2)	(-25,1)	(-87,2)	(2,3)	(4,1)	(-2,1)	(-51,1)	(-110,1)	
L1D 32>	(-7,1)	(-8,113)	(-35,34)	(210,1)	(4,3)	(1,3)	(-138,1)	(23,1)	(-48,1)	(-10,1)	(-104,1)	(-68,1)	(-392,1)	(-1,2)	(-110,1)	(-2,11)	
L1D 33>	(-106,2)	(-33,31)	(5,7)	(8,3)	(-60,2)	(7,2)	(1,23)	(-2,4)	(-12,65)	(2,8)	(11,1)	(-107,1)	(-82,1)	(-27,3)	(3,6)	(-1,6)	
L1D 34>	(1,44)	(-107,2)	(-2,1)	(98,1)	(-6,1)	(-1,11)	(-17,1)	(164,1)	(38,1)	(436,1)	(-204,1)	(-10,3)	(-77,1)	(60,2)	(108,1)	(-16,1)	
L1D 35>	(2,4)	(-8,102)	(121,2)	(110,1)	(182,1)	(7,1)	(122,1)	(10,1)	(-83,1)	(-2,16)	(-1,0)	(4,0)	(30,0)	(-139,0)	(-28,0)	(28,0)	
L1D 36>	(-4,4)	(5,2)	(-2,9)	(1,28)	(10,3)	(-138,2)	(-74,3)	(-72,1)	(-32,1)	(4,7)	(-426,1)	(-80,1)	(-148,1)	(2,11)	(-23,1)	(-31,2)	
L1D 37>	(2,1)	(-2,1)	(-84,1)	(1,7)	(210,0)	(16,1)	(-21,72)	(25,1)	(-123,0)	(60,0)	(-14,0)	(29,0)	(-4,0)	(-1,1)	(-9,0)	(5,0)	
L1D 38>	(-44,71)	(-21,54)	(7,3)	(1,14)	(4,3)	(3,5)	(-40,3)	(74,2)	(118,2)	(-43,13)	(106,2)	(12,2)	(-152,1)	(-68,1)	(-2,40)	(-42,7)	
L1D 39>	(1,11)	(71,1)	(-122,1)	(-19,1)	(-17,1)	(-12,117)	(-21,3)	(4,1)	(148,1)	(18,0)	(-140,0)	(-62,0)	(-44,2)	(99,0)	(-7,0)	(-113,0)	
L1D 40>	(1,28)	(4,4)	(6,3)	(28,1)	(-191,1)	(-1,7)	(100,1)	(132,1)	(30,3)	(322,1)	(444,1)	(-122,2)	(122,2)	(14,1)	(-108,1)	(40,1)	
L1D 41>	(1,23)	(67,2)	(69,2)	(-65,1)	(80,1)	(41,1)	(-60,1)	(52,1)	(-114,1)	(-2,33)	(16,2)	(-40,1)	(-127,2)	(13,1)	(-156,1)	(-107,1)	
L1D 42>	(4,3)	(1,26)	(26,2)	(2,10)	(-43,2)	(66,1)	(11,1)	(-144,2)	(8,1)	(-46,1)	(-362,1)	(96,1)	(-9,1)	(18,4)	(-128,1)	(310,1)	
L1D 43>	(1,9)	(3,2)	(-1,4)	(52,2)	(4,2)	(8,2)	(-89,1)	(5,1)	(-505,1)	(-385,1)	(116,1)	(-153,1)	(2,8)	(-124,1)	(129,1)	(12,1)	
L1D 44>	(-73,1)	(103,1)	(312,1)	(1,29)	(-197,1)	(-46,2)	(-17,1)	(3,1)	(-50,1)	(-48,4)	(-4,1)	(2,3)	(-12,2)	(10,2)	(-2,23)	(18,1)	
L1D 45>	(31,2)	(1,44)	(-27,1)	(26,1)	(-82,1)	(246,1)	(174,1)	(-373,1)	(3,5)	(-22,2)	(54,1)	(-180,1)	(-1,2)	(-37,1)	(-20,1)	(4,3)	
L1D 46>	(1,30)	(2,2)	(6,2)	(-1,4)	(58,1)	(4,2)	(-32,1)	(-16,1)	(-446,1)	(-70,1)	(77,1)	(-41,1)	(-95,1)	(-54,1)	(130,1)	(-116,1)	
L1D 47>	(2,2)	(1,23)	(105,2)	(5,1)	(21,1)	(-180,1)	(9,2)	(-436,1)	(-61,1)	(-2,25)	(162,1)	(-64,1)	(-133,2)	(-162,2)	(3,2)	(-96,2)	
L1D 48>	(30,7)	(-92,2)	(2,12)	(-469,2)	(32,2)	(1,14)	(159,4)	(4,7)	(-58,1)	(68,2)	(158,1)	(386,1)	(87,1)	(-30,1)	(5,3)	(-479,1)	
L1D 49>	(-12,95)	(43,0)	(-33,0)	(-167,0)	(1,0)	(1,0)	(1,0)	(1,0)	(1,0)	(1,0)	(1,0)	(1,0)	(1,0)	(1,0)	(1,0)	(1,0)	
L1D 50>	(-12,103)	(-33,2)	(30,1)	(40,1)	(-217,1)	(-2,1)	(-10,1)	(66,1)	(86,0)	(73,0)	(62,0)	(54,0)	(-61,0)	(-1,0)	(1,0)	(-52,0)	
L1D 51>	(1,8)	(-12,74)	(-59,1)	(-212,1)	(-29,1)	(-47,1)	(20,1)	(2,1)	(-45,1)	(77,1)	(-51,0)	(-49,0)	(-2,1)	(5,0)	(17,1)	(-89,0)	
L1D 52>	(26,2)	(2,12)	(1,24)	(9,2)	(-26,1)	(-2,3)	(-92,1)	(56,2)	(-28,1)	(296,1)	(-42,2)	(-1,1)	(114,1)	(32,1)	(-17,2)	(102,1)	
L1D 53>	(1,13)	(2,2)	(-460,2)	(118,1)	(35,2)	(-1,6)	(-2,20)	(-472,1)	(20,1)	(-40,1)	(159,2)	(50,1)	(-27,1)	(-395,1)	(-417,1)	(-80,1)	
L1D 54>	(1,6)	(29,2)	(157,4)	(352,2)	(152,4)	(35,8)	(-111,1)	(-116,1)	(-89,1)	(14,2)	(-40,1)	(-168,1)	(173,1)	(-99,1)	(-4,3)	(218,1)	
L1D 55>	(-456,4)	(1,13)	(-88,1)	(2,20)	(32,2)	(-111,1)	(72,1)	(-177,1)	(-95,1)	(38,1)	(-11,1)	(-120,1)	(-157,1)	(13,1)	(-192,1)	(-41,1)	
L1D 56>	(78,1)	(-406,1)	(-18,2)	(86,3)	(-10,2)	(36,1)	(39,1)	(-2,5)	(30,3)	(-23,1)	(-50,1)	(-139,1)	(-22,1)	(-377,1)	(-160,1)	(56,1)	
L1D 57>	(1,21)	(-3,1)	(-40,1)	(-77,1)	(-363,1)	(-35,1)	(-2,2)	(-148,1)	(11,1)	(-132,1)	(-42,1)	(5,1)	(-73,2)	(-117,1)	(93,1)	(-1,2)	
L1D 58>	(1,2)	(2,8)	(102,1)	(-172,2)	(-62,2)	(-481,1)	(-73,1)	(362,1)	(-68,1)	(-34,1)	(242,1)	(-130,2)	(-82,1)	(-56,2)	(13,1)	(-112,2)	
L1D 59>	(1,14)	(-2,11)	(-66,1)	(-6,1)	(-252,1)	(70,1)	(4,1)	(141,1)	(-155,1)	(109,1)	(13,1)	(20,1)	(-25,2)	(-100,1)	(-60,1)	(17,1)	
L1D 60>	(-12,1)	(1,43)	(-121,2)	(67,1)	(376,1)	(-407,1)	(-192,1)	(25,2)	(304,1)	(-28,2)	(24,3)	(50,1)	(162,1)	(172,1)	(374,1)	(-16,1)	
L1D 61>	(-29,1)	(-81,1)	(1,8)	(12,1)	(66,1)	(-86,2)	(-22,1)	(-69,1)	(56,1)	(-36,2)	(-48,1)	(-155,1)	(22,1)	(-350,1)	(-2,2)	(-74,1)	
L1D 62>	(-2,10)	(1,6)	(4,2)	(106,1)	(-30,1)	(-218,1)	(69,1)	(62,1)	(-26,1)	(-44,1)	(-50,1)	(27,1)	(-238,2)	(43,1)	(86,2)	(-64,1)	
L1D 63>	(-64,4)	(1,5)	(-72,2)	(-142,1)	(-74,1)	(-54,1)	(-77,1)	(-71,1)	(-141,1)	(25,1)	(-221,1)	(54,1)	(8,2)	(-167,1)	(34,1)	(-110,1)	
L1D 64>	(10,2)	(1,3)	(-10,2)	(-14,1)	(35,1)	(-78,2)	(-82,2)	(-351,1)	(-30,1)	(-104,1)	(-160,2)	(49,1)	(320,1)	(20,1)	(216,1)	(-178,1)	
L1D 65>	(2,5)	(1,3)	(-127,1)	(-2,10)	(4,3)	(-72,1)	(0,1)	(7,1)	(29,1)	(-201,1)	(-39,1)	(-10,1)	(-368,1)	(-132,1)	(-427,1)	(-73,1)	
L1D 66>	(1,3)	(20,2)	(22,1)	(-39,1)	(-7,1)	(56,1)	(-17,1)	(250,1)	(-44,3)	(-4,1)	(-92,1)	(17,2)	(-84,2)	(-34,1)	(-98,1)	(12,1)	
L1D 67>	(1,10)	(-68,1)	(238,1)	(-478,1)	(-104,1)	(-14,1)	(-34,1)	(-441,1)	(4,2)	(-55,1)	(-378,1)	(-23,1)	(-184,1)	(-27,1)	(-38,1)	(7,1)	
L1D 68>	(1,5)	(-1,2)	(-114,1)	(-2,9)	(-20,1)	(-154,1)	(60,1)	(-106,1)	(-60,1)	(-172,2)	(-28,1)	(26,3)	(-108,2)	(6,2)	(-166,1)	(29,1)	
L1D 69>	(2,2)	(1,9)	(4,2)	(-1,3)	(-363,1)	(-62,2)	(-112,1)	(-182,1)	(-25,1)	(-144,1)	(-119,1)	(-121,1)	(326,1)	(-47,2)	(-100,1)	(-77,1)	
L1D 70>	(1,7)	(2,2)	(332,1)	(-14,1)	(64,1)	(111,1)	(-225,1)	(21,1)	(-4,1)	(-188,1)	(36,2)	(-138,1)	(-30,1)	(0,2)	(-26,3)	(-54,1)	
[...]
L1D 479>	(-105,1)	(1,1)	(-412,1)	(-152,1)	(-36,1)	(-479,1)	(-167,1)	(-163,1)	(-144,1)	(-17,1)	(1,0)	(1,0)	(1,0)	(1,0)	(1,0)	(1,0)	
L1D 480>	(-8,1)	(-13,1)	(-1,1)	(-20,1)	(-183,1)	(12,3)	(-2,2)	(0,2)	(24,2)	(-322,1)	(16,1)	(-80,1)	(-324,1)	(-294,1)	(-4,2)	(-10,1)	
L1D 481>	(1,4)	(-161,1)	(-49,1)	(-9,1)	(-108,1)	(-125,1)	(-124,1)	(-476,1)	(1,0)	(1,0)	(1,0)	(1,0)	(1,0)	(1,0)	(1,0)	(1,0)	
L1D 482>	(-212,1)	(1,1)	(-16,3)	(-242,1)	(-292,1)	(-278,1)	(-440,1)	(-77,1)	(0,1)	(14,2)	(-400,1)	(-424,1)	(-240,1)	(-354,1)	(-488,1)	(-280,1)	
L1D 483>	(-159,1)	(1,3)	(-14,1)	(-190,1)	(-143,1)	(9,1)	(-255,1)	(-483,1)	(1,0)	(1,0)	(1,0)	(1,0)	(1,0)	(1,0)	(1,0)	(1,0)	
L1D 484>	(-18,1)	(-127,1)	(-8,2)	(8,1)	(-460,1)	(12,1)	(-452,1)	(-230,2)	(-500,1)	(-6,3)	(-226,1)	(-24,1)	(-4,2)	(20,1)	(-10,1)	(-482,2)	
L1D 485>	(-406,1)	(-28,1)	(-112,1)	(-154,1)	(-100,1)	(-77,1)	(-72,1)	(-38,1)	(23,1)	(-202,1)	(-20,1)	(1,0)	(1,0)	(1,0)	(1,0)	(1,0)	
L1D 486>	(-20,1)	(-19,1)	(-2,1)	(-444,1)	(-16,1)	(-466,1)	(-470,1)	(-12,1)	(-252,1)	(-406,1)	(-410,1)	(5,1)	(-8,2)	(4,2)	(-330,1)	(-364,1)	
L1D 487>	(1,3)	(2,1)	(-198,1)	(-199,1)	(-50,1)	(-124,1)	(-64,1)	(1,0)	(1,0)	(1,0)	(1,0)	(1,0)	(1,0)	(1,0)	(1,0)	(1,0)	
L1D 488>	(-362,1)	(-356,1)	(-234,1)	(2,2)	(-350,2)	(-274,1)	(-9,1)	(-10,1)	(-456,1)	(-137,1)	(-6,1)	(-462,1)	(-18,3)	(-147,1)	(-448,1)	(-476,1)	
L1D 489>	(-318,1)	(-170,1)	(-277,1)	(-210,1)	(-34,1)	(-71,1)	(-11,1)	(-128,1)	(-77,1)	(-114,1)	(1,0)	(1,0)	(1,0)	(1,0)	(1,0)	(1,0)	
L1D 490>	(-14,1)	(4,4)	(-248,2)	(-28,1)	(-2,1)	(-400,1)	(6,1)	(-4,1)	(-10,1)	(-8,2)	(-370,1)	(14,1)	(-362,1)	(-1,1)	(-6,1)	(-306,1)	
L1D 491>	(-490,1)	(1,1)	(-12,1)	(-121,1)	(-489,1)	(-4,1)	(-198,1)	(-146,1)	(-129,1)	(-3,1)	(-214,1)	(11,1)	(1,0)	(1,0)	(1,0)	(1,0)	
L1D 492>	(1,2)	(-220,1)	(-76,1)	(-18,2)	(-20,2)	(-14,4)	(-494,1)	(-222,1)	(4,2)	(-394,2)	(-4,5)	(-360,1)	(-242,1)	(-340,1)	(8,4)	(-256,1)	
L1D 493>	(1,1)	(-127,1)	(-199,1)	(-499,1)	(-158,1)	(1,0)	(1,0)	(1,0)	(1,0)	(1,0)	(1,0)	(1,0)	(1,0)	(1,0)	(1,0)	(1,0)	
L1D 494>	(-8,1)	(-228,1)	(-336,1)	(-18,2)	(8,1)	(-226,1)	(-446,1)	(-4,1)	(-210,1)	(-14,2)	(-218,1)	(4,1)	(-212,1)	(1,1)	(-34,1)	(-139,1)	
L1D 495>	(-16,1)	(1,1)	(-497,1)	(-102,1)	(-198,1)	(-182,1)	(1,0)	(1,0)	(1,0)	(1,0)	(1,0)	(1,0)	(1,0)	(1,0)	(1,0)	(1,0)	
L1D 496>	(-482,1)	(2,1)	(-14,1)	(-22,2)	(-440,1)	(-10,1)	(8,1)	(-20,2)	(-364,1)	(-18,2)	(-274,1)	(-26,1)	(-204,1)	(-386,1)	(-4,2)	(-260,1)	
L1D 497>	(1,2)	(-1,1)	(-503,1)	(-133,1)	(-172,1)	(1,0)	(1,0)	(1,0)	(1,0)	(1,0)	(1,0)	(1,0)	(1,0)	(1,0)	(1,0)	(1,0)	
L1D 498>	(4,1)	(-16,1)	(-64,1)	(-302,1)	(-2,1)	(0,1)	(-244,1)	(-20,1)	(-474,1)	(-195,1)	(-32,1)	(-24,1)	(-14,1)	(-188,1)	(-334,1)	(-270,1)	
L1D 499>	(-219,1)	(-192,1)	(-499,1)	(-23,1)	(1,0)	(1,0)	(1,0)	(1,0)	(1,0)	(1,0)	(1,0)	(1,0)	(1,0)	(1,0)	(1,0)	(1,0)	
L1D 500>	(-12,1)	(-29,1)	(-504,1)	(-410,1)	(2,1)	(-26,1)	(-326,1)	(-99,1)	(-30,1)	(-330,1)	(-20,2)	(-135,1)	(-328,1)	(-260,1)	(-96,1)	(-100,1)	
L1D 501>	(-112,1)	(-116,1)	(-212,1)	(1,0)	(1,0)	(1,0)	(1,0)	(1,0)	(1,0)	(1,0)	(1,0)	(1,0)	(1,0)	(1,0)	(1,0)	(1,0)	
L1D 502>	(-195,1)	(-208,1)	(-162,1)	(-30,1)	(-26,1)	(0,1)	(-50,1)	(-350,1)	(-39,1)	(-356,1)	(-446,1)	(-254,1)	(-70,1)	(-488,1)	(1,0)	(1,0)	
L1D 503>	(1,3)	(4,1)	(1,0)	(1,0)	(1,0)	(1,0)	(1,0)	(1,0)	(1,0)	(1,0)	(1,0)	(1,0)	(1,0)	(1,0)	(1,0)	(1,0)	
L1D 504>	(-39,1)	(-2,1)	(-410,1)	(-304,1)	(0,1)	(-15,1)	(-476,1)	(-262,1)	(1,0)	(1,0)	(1,0)	(1,0)	(1,0)	(1,0)	(1,0)	(1,0)	
L1D 505>	(-502,1)	(-68,1)	(-365,1)	(-204,1)	(-199,1)	(-64,1)	(-190,1)	(1,0)	(1,0)	(1,0)	(1,0)	(1,0)	(1,0)	(1,0)	(1,0)	(1,0)	
L1D 506>	(-335,1)	(-246,1)	(-4,1)	(-242,1)	(-213,1)	(-110,1)	(-150,1)	(1,0)	(1,0)	(1,0)	(1,0)	(1,0)	(1,0)	(1,0)	(1,0)	(1,0)	
L1D 507>	(-99,1)	(-40,1)	(1,0)	(1,0)	(1,0)	(1,0)	(1,0)	(1,0)	(1,0)	(1,0)	(1,0)	(1,0)	(1,0)	(1,0)	(1,0)	(1,0)	
L1D 508>	(-16,1)	(-256,1)	(-308,1)	(-488,1)	(-19,1)	(1,0)	(1,0)	(1,0)	(1,0)	(1,0)	(1,0)	(1,0)	(1,0)	(1,0)	(1,0)	(1,0)	
L1D 509>	(1,0)	(1,0)	(1,0)	(1,0)	(1,0)	(1,0)	(1,0)	(1,0)	(1,0)	(1,0)	(1,0)	(1,0)	(1,0)	(1,0)	(1,0)	(1,0)	
L1D 510>	(-22,1)	(-153,1)	(1,0)	(1,0)	(1,0)	(1,0)	(1,0)	(1,0)	(1,0)	(1,0)	(1,0)	(1,0)	(1,0)	(1,0)	(1,0)	(1,0)	
L1D 511>	(-107,1)	(-168,1)	(-200,1)	(1,0)	(1,0)	(1,0)	(1,0)	(1,0)	(1,0)	(1,0)	(1,0)	(1,0)	(1,0)	(1,0)	(1,0)	(1,0)	

L2C -64>	(6,20)	(1,247)	(-1,9)	(5,10)	(8,5)	(0,6)	(2,23)	(-5,5)	(-4,1)	(3,25)	(7,8)	(12,3)	(-35,2)	(-46,2)	(-36,2)	(-42,2)	
L2C -63>	(1,196)	(3,1)	(6,1)	(12,1)	(2,3)	(37,0)	(28,0)	(51,0)	(56,1)	(1,0)	(1,0)	(1,0)	(1,0)	(1,0)	(1,0)	(1,0)	
L2C -62>	(1,58)	(2,3)	(4,1)	(-1,11)	(1,0)	(1,0)	(1,0)	(1,0)	(1,0)	(1,0)	(1,0)	(1,0)	(1,0)	(1,0)	(1,0)	(1,0)	
L2C -61>	(1,28)	(2,1)	(16,1)	(1,0)	(1,0)	(1,0)	(1,0)	(1,0)	(1,0)	(1,0)	(1,0)	(1,0)	(1,0)	(1,0)	(1,0)	(1,0)	
L2C -60>	(1,44)	(4,1)	(60,3)	(-1,3)	(2,1)	(1,0)	(1,0)	(1,0)	(1,0)	(1,0)	(1,0)	(1,0)	(1,0)	(1,0)	(1,0)	(1,0)	
L2C -59>	(53,1)	(3,1)	(1,27)	(6,2)	(54,2)	(61,1)	(-1,1)	(1,0)	(1,0)	(1,0)	(1,0)	(1,0)	(1,0)	(1,0)	(1,0)	(1,0)	
L2C -58>	(39,1)	(1,17)	(19,2)	(58,2)	(48,1)	(1,0)	(1,0)	(1,0)	(1,0)	(1,0)	(1,0)	(1,0)	(1,0)	(1,0)	(1,0)	(1,0)	
L2C -57>	(1,35)	(55,1)	(52,1)	(41,1)	(33,1)	(-5,1)	(35,1)	(1,0)	(1,0)	(1,0)	(1,0)	(1,0)	(1,0)	(1,0)	(1,0)	(1,0)	
L2C -56>	(1,19)	(50,1)	(-7,2)	(-1,5)	(7,1)	(19,1)	(22,1)	(1,0)	(1,0)	(1,0)	(1,0)	(1,0)	(1,0)	(1,0)	(1,0)	(1,0)	
L2C -55>	(1,71)	(50,1)	(14,1)	(-8,2)	(2,1)	(15,1)	(-1,1)	(18,1)	(1,0)	(1,0)	(1,0)	(1,0)	(1,0)	(1,0)	(1,0)	(1,0)	
L2C -54>	(-1,1)	(1,22)	(39,1)	(30,1)	(-9,2)	(25,1)	(2,6)	(41,1)	(34,1)	(1,0)	(1,0)	(1,0)	(1,0)	(1,0)	(1,0)	(1,0)	
L2C -53>	(1,73)	(50,1)	(-10,1)	(-1,2)	(10,1)	(20,1)	(19,1)	(1,0)	(1,0)	(1,0)	(1,0)	(1,0)	(1,0)	(1,0)	(1,0)	(1,0)	
L2C -52>	(-5,1)	(1,68)	(2,6)	(35,1)	(-11,2)	(45,1)	(41,1)	(21,1)	(17,1)	(18,1)	(6,1)	(39,1)	(1,0)	(1,0)	(1,0)	(1,0)	
L2C -51>	(19,1)	(1,29)	(37,1)	(48,2)	(35,4)	(45,1)	(22,1)	(-1,4)	(34,2)	(-12,2)	(-5,1)	(40,1)	(15,1)	(50,1)	(49,1)	(33,1)	
L2C -50>	(1,35)	(51,1)	(5,1)	(19,1)	(-2,1)	(-13,2)	(2,1)	(4,2)	(-1,1)	(48,1)	(11,1)	(39,1)	(49,1)	(6,1)	(1,0)	(1,0)	
L2C -49>	(1,21)	(15,1)	(39,2)	(38,1)	(20,1)	(31,1)	(22,1)	(-1,2)	(33,1)	(42,1)	(40,1)	(6,1)	(5,1)	(1,0)	(1,0)	(1,0)	
L2C -48>	(8,1)	(1,17)	(40,1)	(23,1)	(-1,6)	(4,3)	(49,1)	(41,1)	(-14,1)	(-15,2)	(22,1)	(32,1)	(13,1)	(12,1)	(1,0)	(1,0)	
L2C -47>	(28,2)	(1,17)	(24,1)	(-1,5)	(-16,1)	(20,1)	(14,1)	(17,1)	(19,1)	(36,1)	(29,1)	(-4,1)	(11,1)	(1,0)	(1,0)	(1,0)	
L2C -46>	(3,2)	(1,28)	(19,2)	(14,1)	(-11,1)	(57,1)	(42,1)	(48,2)	(35,1)	(2,2)	(50,1)	(-2,2)	(29,2)	(-17,2)	(45,1)	(-1,3)	
L2C -45>	(2,2)	(-1,1)	(1,19)	(36,1)	(27,1)	(20,1)	(7,1)	(47,1)	(24,2)	(-9,1)	(-18,2)	(19,1)	(13,1)	(10,1)	(-3,1)	(30,1)	
L2C -44>	(34,1)	(1,23)	(-1,1)	(42,1)	(52,1)	(7,3)	(35,1)	(6,1)	(16,2)	(-19,1)	(53,1)	(2,1)	(23,1)	(3,1)	(11,1)	(14,1)	
L2C -43>	(42,1)	(1,22)	(9,1)	(31,1)	(44,1)	(47,1)	(13,2)	(6,3)	(35,1)	(10,1)	(23,2)	(-6,1)	(-20,1)	(2,3)	(37,1)	(-7,1)	
L2C -42>	(20,2)	(1,30)	(-1,6)	(51,2)	(-2,1)	(12,1)	(-8,1)	(9,1)	(22,1)	(-12,1)	(-19,2)	(14,3)	(10,1)	(30,1)	(34,1)	(2,2)	
L2C -41>	(-1,1)	(38,1)	(1,19)	(4,3)	(27,1)	(20,4)	(14,2)	(6,1)	(3,2)	(-21,1)	(19,1)	(-22,1)	(5,6)	(12,2)	(1,0)	(1,0)	
L2C -40>	(6,3)	(1,23)	(24,3)	(19,2)	(-23,2)	(22,1)	(8,1)	(14,2)	(4,1)	(9,1)	(30,1)	(32,1)	(3,1)	(15,1)	(10,1)	(18,2)	
L2C -39>	(1,15)	(18,2)	(15,1)	(20,1)	(-1,2)	(34,1)	(23,2)	(-6,1)	(10,1)	(24,3)	(3,1)	(12,1)	(6,3)	(33,1)	(4,1)	(-24,2)	
L2C -38>	(1,17)	(-1,4)	(-10,1)	(42,1)	(17,3)	(2,1)	(12,1)	(52,1)	(5,1)	(21,2)	(34,1)	(26,1)	(18,2)	(16,1)	(8,1)	(-15,1)	
L2C -37>	(1,20)	(16,2)	(-26,2)	(19,3)	(36,1)	(30,1)	(17,2)	(45,1)	(-7,2)	(-1,1)	(14,2)	(18,1)	(47,1)	(6,1)	(8,1)	(3,1)	
L2C -36>	(1,28)	(-27,2)	(20,5)	(2,1)	(19,1)	(52,1)	(46,2)	(15,1)	(26,1)	(-1,2)	(38,1)	(35,2)	(6,1)	(-4,1)	(47,1)	(10,2)	
L2C -35>	(1,12)	(48,2)	(-28,1)	(15,3)	(2,2)	(24,1)	(29,2)	(-15,1)	(3,2)	(28,1)	(21,3)	(55,1)	(5,1)	(-7,1)	(40,1)	(19,3)	
L2C -34>	(1,16)	(12,1)	(4,1)	(7,1)	(-1,5)	(39,1)	(26,1)	(2,1)	(13,2)	(46,1)	(18,2)	(6,1)	(19,2)	(31,1)	(5,1)	(16,1)	
L2C -33>	(1,31)	(15,7)	(-30,2)	(32,2)	(22,1)	(16,1)	(-1,6)	(17,6)	(2,5)	(-2,1)	(12,4)	(13,2)	(-5,1)	(4,1)	(11,2)	(24,1)	
L2C -32>	(21,1)	(2,3)	(1,42)	(16,3)	(9,1)	(33,1)	(-3,1)	(-1,6)	(13,2)	(38,1)	(24,1)	(10,7)	(3,3)	(-10,1)	(12,1)	(34,1)	
L2C -31>	(4,2)	(1,28)	(5,5)	(7,1)	(63,1)	(16,1)	(22,1)	(12,1)	(13,1)	(-22,1)	(-1,3)	(2,3)	(-2,2)	(27,2)	(20,1)	(15,1)	
L2C -30>	(1,29)	(13,3)	(4,4)	(23,1)	(2,3)	(31,1)	(20,2)	(-21,1)	(32,1)	(25,1)	(44,1)	(-4,2)	(19,4)	(10,2)	(-23,1)	(3,2)	
L2C -29>	(1,50)	(-3,1)	(-1,3)	(7,1)	(-24,1)	(13,7)	(23,1)	(11,2)	(16,3)	(18,2)	(9,2)	(-5,1)	(-15,1)	(-2,1)	(15,2)	(-32,1)	
L2C -28>	(1,58)	(-1,5)	(12,6)	(11,2)	(13,2)	(3,2)	(8,2)	(2,4)	(-2,1)	(14,1)	(23,1)	(-7,1)	(21,2)	(4,1)	(40,1)	(26,1)	
L2C -27>	(1,52)	(-1,5)	(11,6)	(8,1)	(-2,3)	(7,3)	(2,1)	(5,1)	(3,6)	(6,2)	(13,2)	(4,1)	(24,1)	(50,1)	(10,6)	(29,2)	
L2C -26>	(7,1)	(1,36)	(-1,18)	(2,5)	(3,3)	(38,1)	(-2,4)	(-3,3)	(10,13)	(-4,4)	(11,3)	(5,2)	(30,1)	(23,1)	(9,4)	(25,2)	
L2C -25>	(13,2)	(37,2)	(1,36)	(44,2)	(2,2)	(24,1)	(36,19)	(-24,1)	(39,1)	(19,3)	(-1,10)	(-13,1)	(25,1)	(9,1)	(8,2)	(-5,2)	
L2C -24>	(1,31)	(36,7)	(-9,2)	(35,36)	(7,2)	(4,1)	(46,1)	(-2,2)	(14,1)	(-28,1)	(-1,6)	(50,2)	(34,1)	(3,2)	(31,1)	(19,2)	
L2C -23>	(1,31)	(2,4)	(-7,2)	(34,8)	(3,2)	(-5,1)	(21,4)	(-1,3)	(4,3)	(19,2)	(16,2)	(35,2)	(37,1)	(14,3)	(-4,1)	(31,1)	
L2C -22>	(1,46)	(2,7)	(20,2)	(11,1)	(-1,14)	(18,2)	(7,1)	(37,1)	(35,3)	(-5,3)	(-2,3)	(24,2)	(33,1)	(16,1)	(-14,1)	(5,3)	
L2C -21>	(22,3)	(16,3)	(1,79)	(14,1)	(-1,4)	(4,5)	(10,1)	(-11,1)	(3,4)	(2,2)	(-34,1)	(20,5)	(19,3)	(27,1)	(-32,1)	(35,1)	
L2C -20>	(1,50)	(36,3)	(21,4)	(3,7)	(17,2)	(4,2)	(18,1)	(2,7)	(-10,2)	(15,1)	(-1,3)	(27,1)	(-5,1)	(-21,1)	(20,4)	(-4,1)	
L2C -19>	(2,7)	(1,87)	(35,8)	(7,2)	(20,9)	(3,6)	(12,1)	(5,1)	(19,7)	(-1,5)	(-4,3)	(10,2)	(29,4)	(-19,1)	(-2,2)	(-10,2)	
L2C -18>	(19,8)	(1,132)	(-4,2)	(17,3)	(35,3)	(3,8)	(16,2)	(-14,1)	(7,3)	(63,1)	(-16,1)	(18,10)	(2,14)	(-18,2)	(-1,3)	(0,2)	
L2C -17>	(1,163)	(2,3)	(29,1)	(18,14)	(-19,1)	(4,2)	(32,1)	(-2,3)	(-4,1)	(-12,1)	(-14,2)	(-13,1)	(-1,7)	(-3,1)	(-28,2)	(-10,2)	
L2C -16>	(1,75)	(25,3)	(-9,3)	(17,12)	(3,5)	(-19,16)	(52,1)	(11,5)	(-1,11)	(-18,38)	(23,2)	(2,8)	(16,2)	(-12,3)	(-14,4)	(-17,10)	
L2C -15>	(-2,3)	(1,105)	(14,2)	(4,2)	(8,2)	(16,5)	(-29,2)	(13,1)	(2,17)	(-12,2)	(-18,1)	(-1,12)	(7,3)	(12,1)	(21,2)	(-32,1)	
L2C -14>	(-2,3)	(1,135)	(5,5)	(-23,1)	(56,1)	(16,1)	(8,2)	(2,10)	(9,2)	(26,3)	(0,3)	(3,4)	(4,3)	(-10,3)	(-1,12)	(54,1)	
L2C -13>	(3,2)	(1,103)	(0,2)	(4,4)	(8,8)	(2,9)	(21,2)	(23,2)	(16,3)	(15,3)	(9,4)	(-30,1)	(-1,6)	(-3,1)	(-8,1)	(31,2)	
L2C -12>	(-1,16)	(1,100)	(6,7)	(7,3)	(-23,1)	(26,3)	(-46,1)	(-51,5)	(11,6)	(-2,3)	(8,2)	(2,5)	(21,1)	(-5,3)	(14,2)	(32,4)	
L2C -11>	(1,90)	(8,7)	(5,4)	(17,3)	(10,5)	(0,2)	(-1,17)	(15,1)	(28,2)	(-51,1)	(2,6)	(38,1)	(-8,2)	(4,5)	(-52,7)	(25,1)	
L2C -10>	(19,4)	(-2,5)	(1,105)	(-1,14)	(-4,3)	(-53,5)	(9,5)	(8,4)	(6,4)	(-13,2)	(-7,3)	(2,6)	(-5,3)	(4,3)	(-17,3)	(11,1)	
L2C -9>	(-54,7)	(1,102)	(4,5)	(-4,4)	(-2,2)	(27,2)	(-18,2)	(13,4)	(-1,11)	(-9,3)	(40,1)	(-3,4)	(8,2)	(6,9)	(5,1)	(-50,2)	
L2C -8>	(1,83)	(-1,14)	(5,2)	(7,2)	(3,14)	(-55,6)	(6,22)	(2,10)	(9,8)	(16,2)	(19,3)	(12,2)	(23,1)	(32,3)	(-43,1)	(-9,1)	
L2C -7>	(7,2)	(3,8)	(2,25)	(-23,3)	(1,43)	(-2,4)	(9,2)	(-4,2)	(8,26)	(20,4)	(-24,3)	(-1,13)	(-56,3)	(-43,2)	(-13,1)	(50,1)	
L2C -6>	(1,101)	(3,16)	(-3,4)	(-1,33)	(2,26)	(9,5)	(4,3)	(7,34)	(-9,2)	(8,6)	(-13,1)	(-2,5)	(13,3)	(-8,1)	(-16,1)	(-10,3)	
L2C -5>	(2,14)	(3,6)	(1,82)	(4,11)	(0,23)	(-2,21)	(35,4)	(8,3)	(7,8)	(-5,4)	(19,4)	(-36,1)	(-1,24)	(-19,3)	(6,19)	(-14,3)	
L2C -4>	(0,7)	(3,30)	(-24,3)	(1,184)	(7,1)	(2,55)	(-2,10)	(6,46)	(-16,2)	(28,2)	(-31,1)	(-1,87)	(5,22)	(-4,3)	(-46,2)	(13,4)	
L2C -3>	(-2,13)	(2,127)	(1,66)	(4,33)	(6,62)	(10,1)	(9,5)	(-1,79)	(13,1)	(0,7)	(26,5)	(5,16)	(22,4)	(-25,1)	(31,2)	(21,3)	
L2C -2>	(1,213)	(-3,10)	(4,54)	(2,1)	(-23,1)	(-26,2)	(3,80)	(0,3)	(-5,1)	(-2,32)	(5,7)	(6,8)	(19,1)	(-1,18)	(-10,1)	(7,1)	
L2C -1>	(2,244)	(3,65)	(4,12)	(-3,11)	(17,2)	(1,18)	(-1,50)	(-2,26)	(5,3)	(-5,1)	(-4,5)	(-8,2)	(7,1)	(0,6)	(23,1)	(6,4)	
L2C 0>	(1,29)	(0,173)	(-1,8)	(-17,1)	(11,1)	(2,0)	(-30,0)	(-7,0)	(-9,0)	(-29,0)	(1,0)	(1,0)	(1,0)	(1,0)	(1,0)	(1,0)	
L2C 1>	(1,253)	(-3,1)	(2,7)	(-63,1)	(-4,0)	(-50,0)	(13,0)	(9,0)	(-5,0)	(-27,0)	(-2,1)	(-45,0)	(-29,1)	(-8,0)	(-13,1)	(3,2)	
L2C 2>	(-5,1)	(-8,1)	(1,225)	(2,33)	(-4,7)	(-1,108)	(3,14)	(4,6)	(23,1)	(-32,1)	(-3,15)	(-28,1)	(-51,1)	(-11,1)	(-6,2)	(-13,1)	
L2C 3>	(-8,2)	(-1,109)	(-11,1)	(1,160)	(3,10)	(2,26)	(-2,186)	(30,1)	(-13,3)	(-29,1)	(-6,2)	(-5,2)	(-4,10)	(-10,1)	(4,4)	(-7,1)	
L2C 4>	(1,224)	(-3,13)	(-7,2)	(2,33)	(-10,2)	(-2,29)	(9,1)	(3,17)	(-6,3)	(5,4)	(-1,67)	(-18,1)	(-14,1)	(7,1)	(-13,1)	(11,2)	
L2C 5>	(0,1)	(1,124)	(2,25)	(7,2)	(-1,36)	(-16,4)	(-8,3)	(-4,15)	(3,9)	(-2,17)	(-28,2)	(21,2)	(-10,3)	(-3,13)	(10,6)	(-11,2)	
L2C 6>	(1,113)	(-2,45)	(4,9)	(-4,45)	(-16,1)	(-5,4)	(-40,2)	(2,11)	(3,8)	(6,3)	(-1,90)	(9,4)	(-11,3)	(-3,2)	(10,3)	(19,2)	
L2C 7>	(4,2)	(-1,18)	(1,128)	(-6,6)	(-15,2)	(-8,3)	(2,13)	(-4,2)	(3,6)	(-10,2)	(-35,2)	(-2,16)	(19,4)	(-5,1)	(-14,2)	(-18,1)	
L2C 8>	(-18,5)	(-8,4)	(1,77)	(-9,4)	(14,3)	(-21,2)	(-1,10)	(9,3)	(2,5)	(-7,4)	(-63,2)	(-6,2)	(-37,3)	(-42,1)	(-2,3)	(-10,5)	
L2C 9>	(-13,3)	(1,56)	(-18,2)	(3,7)	(2,1)	(-16,2)	(-58,1)	(-34,3)	(7,1)	(23,1)	(-8,3)	(-11,6)	(-6,4)	(-1,15)	(-2,4)	(14,1)	
L2C 10>	(1,54)	(-63,2)	(-20,2)	(-9,23)	(19,3)	(18,1)	(-24,1)	(-19,1)	(2,8)	(-45,1)	(-60,2)	(-11,2)	(-53,2)	(-16,2)	(-1,13)	(9,1)	
L2C 11>	(4,5)	(7,3)	(-12,3)	(1,49)	(-10,16)	(-1,12)	(-8,1)	(9,1)	(-2,6)	(-60,1)	(36,2)	(2,6)	(-11,2)	(-19,5)	(-22,3)	(-34,2)	
L2C 12>	(-1,10)	(-10,4)	(-14,4)	(1,50)	(3,2)	(-3,3)	(-18,2)	(2,7)	(-11,13)	(-6,2)	(-16,1)	(8,2)	(-29,1)	(30,1)	(6,4)	(-7,2)	
L2C 13>	(1,72)	(-16,2)	(-12,16)	(-4,3)	(-26,2)	(-11,3)	(-1,14)	(3,3)	(-2,2)	(9,2)	(-6,3)	(-15,1)	(-23,1)	(-36,2)	(-28,1)	(2,4)	
L2C 14>	(-13,5)	(1,64)	(15,2)	(-12,8)	(4,1)	(-3,4)	(-10,2)	(-48,1)	(-61,1)	(-55,1)	(14,2)	(9,2)	(6,3)	(3,1)	(2,5)	(-16,3)	
L2C 15>	(1,60)	(16,6)	(18,1)	(-8,3)	(-1,6)	(-49,1)	(2,6)	(13,1)	(-22,2)	(-30,2)	(-60,2)	(-6,1)	(-46,1)	(-13,6)	(-42,1)	(19,2)	
L2C 16>	(-15,19)	(-39,1)	(1,50)	(-18,5)	(-8,1)	(-3,2)	(-13,1)	(2,8)	(15,1)	(-2,2)	(-46,1)	(-10,2)	(-1,3)	(-6,1)	(5,3)	(14,2)	
L2C 17>	(-18,3)	(-2,2)	(1,72)	(-63,4)	(-16,8)	(8,2)	(-11,4)	(-52,1)	(2,3)	(4,1)	(9,2)	(32,1)	(-10,2)	(-26,1)	(-22,3)	(-5,2)	
L2C 18>	(7,7)	(1,61)	(-7,4)	(-2,2)	(-17,25)	(-4,6)	(2,2)	(-1,7)	(-20,3)	(-5,2)	(-23,1)	(-3,2)	(-28,2)	(18,2)	(-49,1)	(-8,1)	
L2C 19>	(1,68)	(-18,17)	(7,4)	(-31,3)	(-20,5)	(-19,2)	(-26,4)	(-11,2)	(-17,9)	(2,5)	(-1,7)	(-16,10)	(-13,5)	(-10,3)	(-3,1)	(13,2)	
L2C 20>	(-1,4)	(1,24)	(-61,2)	(-63,2)	(-13,3)	(11,1)	(-19,21)	(-60,2)	(-18,6)	(16,3)	(-11,1)	(-53,5)	(25,1)	(20,1)	(-12,3)	(-15,1)	
L2C 21>	(1,26)	(-20,4)	(-3,4)	(6,3)	(-7,2)	(-28,1)	(-29,1)	(-1,3)	(-22,4)	(-27,4)	(13,4)	(-18,3)	(18,1)	(27,1)	(-4,3)	(3,4)	
L2C 22>	(-24,1)	(1,21)	(-25,1)	(2,4)	(-16,3)	(-21,2)	(-14,2)	(-33,1)	(-60,8)	(18,1)	(26,1)	(-63,4)	(-53,3)	(-17,2)	(-8,1)	(9,2)	
L2C 23>	(-63,7)	(1,29)	(11,1)	(3,4)	(-6,1)	(10,1)	(13,1)	(8,1)	(-27,1)	(-3,1)	(-4,2)	(-53,3)	(-22,3)	(32,1)	(-32,1)	(-18,2)	
L2C 24>	(-53,5)	(-63,3)	(1,24)	(-28,1)	(10,1)	(-9,2)	(-5,1)	(9,1)	(2,2)	(-10,1)	(-22,3)	(12,1)	(-2,4)	(-1,4)	(-16,6)	(-15,1)	
L2C 25>	(-16,1)	(-1,5)	(10,1)	(-20,2)	(1,30)	(-13,2)	(17,2)	(-48,1)	(-33,1)	(-38,1)	(-18,1)	(2,3)	(-9,2)	(-53,1)	(-6,2)	(-17,2)	
L2C 26>	(-27,2)	(1,16)	(-42,2)	(11,1)	(21,1)	(-14,1)	(-16,1)	(-1,3)	(-7,2)	(-29,1)	(2,3)	(4,1)	(27,1)	(-3,1)	(-57,1)	(8,1)	
L2C 27>	(1,32)	(-48,2)	(13,1)	(-46,1)	(-13,2)	(3,2)	(-30,1)	(5,1)	(10,2)	(-40,1)	(-45,2)	(6,2)	(-12,3)	(2,2)	(-24,1)	(-22,1)	
L2C 28>	(-24,1)	(-11,1)	(1,14)	(-46,1)	(-27,1)	(-14,2)	(35,2)	(-58,1)	(3,1)	(18,1)	(13,1)	(-23,1)	(-16,2)	(-19,1)	(-37,1)	(-45,1)	
L2C 29>	(1,18)	(16,1)	(-17,1)	(-16,4)	(-22,2)	(-27,3)	(-4,1)	(4,1)	(2,2)	(3,1)	(18,2)	(0,1)	(-11,1)	(-56,1)	(-23,2)	(-12,1)	
L2C 30>	(2,5)	(1,13)	(-29,1)	(-17,21)	(-7,1)	(-16,5)	(-2,3)	(-6,1)	(-10,2)	(-1,3)	(11,1)	(23,1)	(-27,2)	(-31,1)	(26,1)	(13,1)	
L2C 31>	(-45,2)	(-29,1)	(1,8)	(-19,1)	(-17,7)	(-28,1)	(-16,2)	(-14,3)	(-23,1)	(-27,1)	(-22,1)	(-18,2)	(-4,2)	(-2,2)	(4,2)	(-13,1)	
L2C 32>	(-44,4)	(1,12)	(-4,1)	(-16,1)	(-30,1)	(5,1)	(-46,1)	(-2,2)	(9,1)	(-11,1)	(-40,1)	(-37,1)	(-38,1)	(-5,1)	(-21,1)	(-7,1)	
L2C 33>	(1,14)	(-26,1)	(-32,2)	(-35,1)	(2,4)	(-16,1)	(-50,1)	(3,1)	(-3,2)	(-2,2)	(-1,3)	(-47,1)	(-4,2)	(-48,1)	(6,1)	(-5,1)	
L2C 34>	(-54,2)	(-19,3)	(-36,2)	(-44,6)	(-17,8)	(1,15)	(-16,11)	(-1,1)	(3,2)	(11,1)	(-2,1)	(20,1)	(2,2)	(-32,1)	(-52,2)	(-50,4)	
L2C 35>	(1,3)	(-26,1)	(-32,1)	(-34,6)	(-10,2)	(-21,1)	(-16,38)	(-17,19)	(-62,2)	(-46,2)	(-27,2)	(-5,1)	(-2,2)	(-1,1)	(-11,1)	(-6,1)	
L2C 36>	(-17,18)	(-23,1)	(-2,1)	(1,15)	(-35,4)	(-7,1)	(-21,1)	(-27,1)	(-46,1)	(-16,17)	(-28,1)	(11,1)	(-33,1)	(9,1)	(-10,1)	(-24,1)	
L2C 37>	(3,1)	(1,10)	(-36,5)	(-2,1)	(-4,3)	(-1,1)	(-5,1)	(-17,1)	(-18,1)	(-16,1)	(-27,1)	(-42,1)	(-58,4)	(-9,1)	(-46,1)	(2,1)	
L2C 38>	(1,4)	(-17,1)	(3,2)	(-28,1)	(-11,1)	(2,2)	(-27,2)	(-34,1)	(-40,1)	(-1,3)	(6,2)	(-42,1)	(1,0)	(1,0)	(1,0)	(1,0)	
L2C 39>	(18,2)	(-4,1)	(1,10)	(3,2)	(-21,1)	(-2,1)	(-42,1)	(-28,1)	(-8,1)	(-19,1)	(-31,1)	(-43,1)	(-1,1)	(-25,1)	(-23,1)	(-16,1)	
L2C 40>	(3,1)	(11,1)	(1,23)	(-14,1)	(-37,1)	(8,1)	(-58,6)	(-26,2)	(-7,1)	(4,1)	(-10,2)	(-16,1)	(-1,1)	(-30,1)	(-31,1)	(1,0)	
L2C 41>	(1,2)	(-42,1)	(-50,1)	(-30,2)	(-43,1)	(6,1)	(-1,1)	(-18,2)	(-23,1)	(2,1)	(-55,1)	(-29,1)	(-8,1)	(1,0)	(1,0)	(1,0)	
L2C 42>	(-50,1)	(-41,1)	(4,1)	(1,7)	(-19,1)	(-1,2)	(-26,2)	(-39,1)	(-4,1)	(-10,1)	(-57,1)	(-16,1)	(-21,1)	(-22,1)	(1,0)	(1,0)	
L2C 43>	(-42,2)	(1,2)	(-57,1)	(-21,1)	(-46,1)	(-8,1)	(-7,1)	(6,2)	(-22,1)	(3,1)	(-28,1)	(-1,1)	(1,0)	(1,0)	(1,0)	(1,0)	
L2C 44>	(-43,2)	(-4,2)	(-35,1)	(1,2)	(-37,1)	(-42,1)	(6,2)	(-3,2)	(7,1)	(-40,1)	(-16,1)	(-62,1)	(-46,1)	(-33,1)	(-30,1)	(-5,1)	
L2C 45>	(-15,1)	(-4,2)	(-1,2)	(-27,1)	(-37,1)	(3,2)	(2,1)	(1,1)	(-3,1)	(-62,1)	(-17,1)	(6,1)	(1,0)	(1,0)	(1,0)	(1,0)	
L2C 46>	(-30,1)	(3,2)	(1,2)	(-2,1)	(-13,1)	(-21,1)	(-37,2)	(6,1)	(-10,1)	(-34,1)	(-15,1)	(-38,1)	(1,0)	(1,0)	(1,0)	(1,0)	
L2C 47>	(-49,1)	(-2,1)	(1,1)	(-31,2)	(-16,1)	(-4,1)	(-48,1)	(-51,1)	(2,1)	(-43,1)	(-53,1)	(1,0)	(1,0)	(1,0)	(1,0)	(1,0)	
L2C 48>	(-4,3)	(-44,1)	(-47,4)	(3,2)	(-42,1)	(-25,1)	(-60,1)	(-26,1)	(-13,1)	(-1,1)	(-23,1)	(-28,1)	(-41,1)	(6,2)	(2,1)	(-45,1)	
L2C 49>	(-17,1)	(1,3)	(-1,1)	(-2,1)	(-47,1)	(-48,1)	(-21,1)	(-4,3)	(9,1)	(-38,1)	(1,0)	(1,0)	(1,0)	(1,0)	(1,0)	(1,0)	
L2C 50>	(-15,1)	(-19,1)	(1,3)	(-16,1)	(-4,2)	(-27,1)	(-44,1)	(-2,1)	(-1,1)	(-32,1)	(1,0)	(1,0)	(1,0)	(1,0)	(1,0)	(1,0)	
L2C 51>	(-3,1)	(-49,1)	(-2,2)	(1,1)	(-50,2)	(-1,1)	(-29,1)	(-39,1)	(-37,1)	(-20,1)	(1,0)	(1,0)	(1,0)	(1,0)	(1,0)	(1,0)	
L2C 52>	(-4,2)	(-11,1)	(1,2)	(-28,1)	(-39,1)	(-20,2)	(2,1)	(-56,1)	(-47,1)	(-13,1)	(-18,1)	(1,0)	(1,0)	(1,0)	(1,0)	(1,0)	
L2C 53>	(-52,1)	(3,1)	(-51,1)	(-27,1)	(-44,2)	(-24,1)	(1,0)	(1,0)	(1,0)	(1,0)	(1,0)	(1,0)	(1,0)	(1,0)	(1,0)	(1,0)	
L2C 54>	(-58,1)	(1,1)	(3,1)	(-53,2)	(-39,1)	(-46,1)	(-26,1)	(1,0)	(1,0)	(1,0)	(1,0)	(1,0)	(1,0)	(1,0)	(1,0)	(1,0)	
L2C 55>	(-14,1)	(-2,1)	(-36,1)	(-30,1)	(-35,1)	(1,0)	(1,0)	(1,0)	(1,0)	(1,0)	(1,0)	(1,0)	(1,0)	(1,0)	(1,0)	(1,0)	
L2C 56>	(-41,1)	(-55,3)	(-3,1)	(-30,1)	(-22,1)	(1,0)	(1,0)	(1,0)	(1,0)	(1,0)	(1,0)	(1,0)	(1,0)	(1,0)	(1,0)	(1,0)	
L2C 57>	(-40,1)	(-53,1)	(1,0)	(1,0)	(1,0)	(1,0)	(1,0)	(1,0)	(1,0)	(1,0)	(1,0)	(1,0)	(1,0)	(1,0)	(1,0)	(1,0)	
L2C 58>	(-56,1)	(-5,1)	(-23,1)	(-57,1)	(1,0)	(1,0)	(1,0)	(1,0)	(1,0)	(1,0)	(1,0)	(1,0)	(1,0)	(1,0)	(1,0)	(1,0)	
L2C 59>	(-23,1)	(-1,1)	(1,0)	(1,0)	(1,0)	(1,0)	(1,0)	(1,0)	(1,0)	(1,0)	(1,0)	(1,0)	(1,0)	(1,0)	(1,0)	(1,0)	
L2C 60>	(-3,1)	(-9,2)	(1,0)	(1,0)	(1,0)	(1,0)	(1,0)	(1,0)	(1,0)	(1,0)	(1,0)	(1,0)	(1,0)	(1,0)	(1,0)	(1,0)	
L2C 61>	(-60,1)	(1,0)	(1,0)	(1,0)	(1,0)	(1,0)	(1,0)	(1,0)	(1,0)	(1,0)	(1,0)	(1,0)	(1,0)	(1,0)	(1,0)	(1,0)	
L2C 62>	(-61,1)	(1,0)	(1,0)	(1,0)	(1,0)	(1,0)	(1,0)	(1,0)	(1,0)	(1,0)	(1,0)	(1,0)	(1,0)	(1,0)	(1,0)	(1,0)	
L2C 63>	(-3,1)	(-27,1)	(1,0)	(1,0)	(1,0)	(1,0)	(1,0)	(1,0)	(1,0)	(1,0)	(1,0)	(1,0)	(1,0)	(1,0)	(1,0)	(1,0)	

DRAM Statistics
 CHANNEL 0
 RQ ROW_BUFFER_HIT:       7460  ROW_BUFFER_MISS:       1020
 DBUS_CONGESTED:       4782
 WQ ROW_BUFFER_HIT:          0  ROW_BUFFER_MISS:          0  FULL:          0

 AVG_CONGESTED_CYCLE: 6
