
*** ChampSim Multicore Out-of-Order Simulator ***

Warmup Instructions: 1000000
Simulation Instructions: 10000000
Number of CPUs: 1
LLC sets: 2048
LLC ways: 16
Off-chip DRAM Size: 4096 MB Channels: 1 Width: 64-bit Data Rate: 3200 MT/s

CPU 0 runs /home/virtualcse/Data-Prefetching/ChampSim/dpc3_traces/648.exchange2_s-1227B.champsimtrace.xz
Ultra pref. initializing...
Ultra pref. initialized
Ultra pref. initializing...
Ultra pref. initialized

Warmup complete CPU 0 instructions: 1000004 cycles: 318959 (Simulation time: 0 hr 0 min 1 sec) 

Heartbeat CPU 0 instructions: 10000001 cycles: 4784702 heartbeat IPC: 2.08999 cumulative IPC: 2.01534 (Simulation time: 0 hr 0 min 10 sec) 
Finished CPU 0 instructions: 10000002 cycles: 4977389 cumulative IPC: 2.00909 (Simulation time: 0 hr 0 min 11 sec) 

CPU 0 Branch Prediction Accuracy: 96.1601% MPKI: 5.8932 Average ROB Occupancy at Mispredict: 49.8497

ChampSim completed all CPUs

Region of Interest Statistics

CPU 0 cumulative IPC: 2.00909 instructions: 10000002 cycles: 4977389
L1D TOTAL     ACCESS:    3568263  HIT:    3568055  MISS:        208
L1D LOAD      ACCESS:    1183330  HIT:    1183316  MISS:         14
L1D RFO       ACCESS:    1149953  HIT:    1149882  MISS:         71
L1D PREFETCH  ACCESS:    1234980  HIT:    1234857  MISS:        123
L1D WRITEBACK ACCESS:          0  HIT:          0  MISS:          0
L1D PREFETCH  REQUESTED:    9145173  ISSUED:    6367320  USEFUL:        124  USELESS:          0
L1D AVERAGE MISS LATENCY: 120.625 cycles
L1I TOTAL     ACCESS:     656722  HIT:     652357  MISS:       4365
L1I LOAD      ACCESS:     656722  HIT:     652357  MISS:       4365
L1I RFO       ACCESS:          0  HIT:          0  MISS:          0
L1I PREFETCH  ACCESS:          0  HIT:          0  MISS:          0
L1I WRITEBACK ACCESS:          0  HIT:          0  MISS:          0
L1I PREFETCH  REQUESTED:          0  ISSUED:          0  USEFUL:          0  USELESS:          0
L1I AVERAGE MISS LATENCY: 14.5368 cycles
L2C TOTAL     ACCESS:      53899  HIT:      52718  MISS:       1181
L2C LOAD      ACCESS:       4377  HIT:       4318  MISS:         59
L2C RFO       ACCESS:         71  HIT:          5  MISS:         66
L2C PREFETCH  ACCESS:      49451  HIT:      48395  MISS:       1056
L2C WRITEBACK ACCESS:          0  HIT:          0  MISS:          0
L2C PREFETCH  REQUESTED:      88344  ISSUED:      67576  USEFUL:       1116  USELESS:          0
L2C AVERAGE MISS LATENCY: 163.302 cycles
LLC TOTAL     ACCESS:       1181  HIT:          0  MISS:       1181
LLC LOAD      ACCESS:         55  HIT:          0  MISS:         55
LLC RFO       ACCESS:         65  HIT:          0  MISS:         65
LLC PREFETCH  ACCESS:       1061  HIT:          0  MISS:       1061
LLC WRITEBACK ACCESS:          0  HIT:          0  MISS:          0
LLC PREFETCH  REQUESTED:          0  ISSUED:          0  USEFUL:          0  USELESS:          0
LLC AVERAGE MISS LATENCY: 131.805 cycles
Major fault: 0 Minor fault: 47

L1D -512>	(1,1)	(-1,2)	(0,8)	(36,1)	(5,1)	(-66,1)	(-2,1)	(108,1)	(402,1)	(1,0)	(1,0)	(1,0)	(1,0)	(1,0)	(1,0)	(1,0)	
L1D -511>	(1,0)	(1,0)	(1,0)	(1,0)	(1,0)	(1,0)	(1,0)	(1,0)	(1,0)	(1,0)	(1,0)	(1,0)	(1,0)	(1,0)	(1,0)	(1,0)	
L1D -510>	(1,0)	(1,0)	(1,0)	(1,0)	(1,0)	(1,0)	(1,0)	(1,0)	(1,0)	(1,0)	(1,0)	(1,0)	(1,0)	(1,0)	(1,0)	(1,0)	
L1D -509>	(1,0)	(1,0)	(1,0)	(1,0)	(1,0)	(1,0)	(1,0)	(1,0)	(1,0)	(1,0)	(1,0)	(1,0)	(1,0)	(1,0)	(1,0)	(1,0)	
L1D -508>	(1,0)	(1,0)	(1,0)	(1,0)	(1,0)	(1,0)	(1,0)	(1,0)	(1,0)	(1,0)	(1,0)	(1,0)	(1,0)	(1,0)	(1,0)	(1,0)	
L1D -507>	(1,0)	(1,0)	(1,0)	(1,0)	(1,0)	(1,0)	(1,0)	(1,0)	(1,0)	(1,0)	(1,0)	(1,0)	(1,0)	(1,0)	(1,0)	(1,0)	
L1D -506>	(1,0)	(1,0)	(1,0)	(1,0)	(1,0)	(1,0)	(1,0)	(1,0)	(1,0)	(1,0)	(1,0)	(1,0)	(1,0)	(1,0)	(1,0)	(1,0)	
L1D -505>	(1,0)	(1,0)	(1,0)	(1,0)	(1,0)	(1,0)	(1,0)	(1,0)	(1,0)	(1,0)	(1,0)	(1,0)	(1,0)	(1,0)	(1,0)	(1,0)	
L1D -504>	(1,0)	(1,0)	(1,0)	(1,0)	(1,0)	(1,0)	(1,0)	(1,0)	(1,0)	(1,0)	(1,0)	(1,0)	(1,0)	(1,0)	(1,0)	(1,0)	
L1D -503>	(1,0)	(1,0)	(1,0)	(1,0)	(1,0)	(1,0)	(1,0)	(1,0)	(1,0)	(1,0)	(1,0)	(1,0)	(1,0)	(1,0)	(1,0)	(1,0)	
L1D -502>	(1,0)	(1,0)	(1,0)	(1,0)	(1,0)	(1,0)	(1,0)	(1,0)	(1,0)	(1,0)	(1,0)	(1,0)	(1,0)	(1,0)	(1,0)	(1,0)	
L1D -501>	(1,0)	(1,0)	(1,0)	(1,0)	(1,0)	(1,0)	(1,0)	(1,0)	(1,0)	(1,0)	(1,0)	(1,0)	(1,0)	(1,0)	(1,0)	(1,0)	
L1D -500>	(1,0)	(1,0)	(1,0)	(1,0)	(1,0)	(1,0)	(1,0)	(1,0)	(1,0)	(1,0)	(1,0)	(1,0)	(1,0)	(1,0)	(1,0)	(1,0)	
L1D -499>	(499,1)	(1,0)	(1,0)	(1,0)	(1,0)	(1,0)	(1,0)	(1,0)	(1,0)	(1,0)	(1,0)	(1,0)	(1,0)	(1,0)	(1,0)	(1,0)	
L1D -498>	(1,0)	(1,0)	(1,0)	(1,0)	(1,0)	(1,0)	(1,0)	(1,0)	(1,0)	(1,0)	(1,0)	(1,0)	(1,0)	(1,0)	(1,0)	(1,0)	
L1D -497>	(1,0)	(1,0)	(1,0)	(1,0)	(1,0)	(1,0)	(1,0)	(1,0)	(1,0)	(1,0)	(1,0)	(1,0)	(1,0)	(1,0)	(1,0)	(1,0)	
L1D -496>	(1,0)	(1,0)	(1,0)	(1,0)	(1,0)	(1,0)	(1,0)	(1,0)	(1,0)	(1,0)	(1,0)	(1,0)	(1,0)	(1,0)	(1,0)	(1,0)	
L1D -495>	(1,0)	(1,0)	(1,0)	(1,0)	(1,0)	(1,0)	(1,0)	(1,0)	(1,0)	(1,0)	(1,0)	(1,0)	(1,0)	(1,0)	(1,0)	(1,0)	
L1D -494>	(1,0)	(1,0)	(1,0)	(1,0)	(1,0)	(1,0)	(1,0)	(1,0)	(1,0)	(1,0)	(1,0)	(1,0)	(1,0)	(1,0)	(1,0)	(1,0)	
L1D -493>	(1,0)	(1,0)	(1,0)	(1,0)	(1,0)	(1,0)	(1,0)	(1,0)	(1,0)	(1,0)	(1,0)	(1,0)	(1,0)	(1,0)	(1,0)	(1,0)	
L1D -492>	(1,0)	(1,0)	(1,0)	(1,0)	(1,0)	(1,0)	(1,0)	(1,0)	(1,0)	(1,0)	(1,0)	(1,0)	(1,0)	(1,0)	(1,0)	(1,0)	
L1D -491>	(1,0)	(1,0)	(1,0)	(1,0)	(1,0)	(1,0)	(1,0)	(1,0)	(1,0)	(1,0)	(1,0)	(1,0)	(1,0)	(1,0)	(1,0)	(1,0)	
L1D -490>	(1,0)	(1,0)	(1,0)	(1,0)	(1,0)	(1,0)	(1,0)	(1,0)	(1,0)	(1,0)	(1,0)	(1,0)	(1,0)	(1,0)	(1,0)	(1,0)	
L1D -489>	(1,0)	(1,0)	(1,0)	(1,0)	(1,0)	(1,0)	(1,0)	(1,0)	(1,0)	(1,0)	(1,0)	(1,0)	(1,0)	(1,0)	(1,0)	(1,0)	
L1D -488>	(1,0)	(1,0)	(1,0)	(1,0)	(1,0)	(1,0)	(1,0)	(1,0)	(1,0)	(1,0)	(1,0)	(1,0)	(1,0)	(1,0)	(1,0)	(1,0)	
L1D -487>	(1,0)	(1,0)	(1,0)	(1,0)	(1,0)	(1,0)	(1,0)	(1,0)	(1,0)	(1,0)	(1,0)	(1,0)	(1,0)	(1,0)	(1,0)	(1,0)	
L1D -486>	(1,0)	(1,0)	(1,0)	(1,0)	(1,0)	(1,0)	(1,0)	(1,0)	(1,0)	(1,0)	(1,0)	(1,0)	(1,0)	(1,0)	(1,0)	(1,0)	
L1D -485>	(1,0)	(1,0)	(1,0)	(1,0)	(1,0)	(1,0)	(1,0)	(1,0)	(1,0)	(1,0)	(1,0)	(1,0)	(1,0)	(1,0)	(1,0)	(1,0)	
L1D -484>	(1,0)	(1,0)	(1,0)	(1,0)	(1,0)	(1,0)	(1,0)	(1,0)	(1,0)	(1,0)	(1,0)	(1,0)	(1,0)	(1,0)	(1,0)	(1,0)	
L1D -483>	(1,0)	(1,0)	(1,0)	(1,0)	(1,0)	(1,0)	(1,0)	(1,0)	(1,0)	(1,0)	(1,0)	(1,0)	(1,0)	(1,0)	(1,0)	(1,0)	
L1D -482>	(1,0)	(1,0)	(1,0)	(1,0)	(1,0)	(1,0)	(1,0)	(1,0)	(1,0)	(1,0)	(1,0)	(1,0)	(1,0)	(1,0)	(1,0)	(1,0)	
L1D -481>	(1,0)	(1,0)	(1,0)	(1,0)	(1,0)	(1,0)	(1,0)	(1,0)	(1,0)	(1,0)	(1,0)	(1,0)	(1,0)	(1,0)	(1,0)	(1,0)	
L1D -480>	(1,0)	(1,0)	(1,0)	(1,0)	(1,0)	(1,0)	(1,0)	(1,0)	(1,0)	(1,0)	(1,0)	(1,0)	(1,0)	(1,0)	(1,0)	(1,0)	
L1D -479>	(1,0)	(1,0)	(1,0)	(1,0)	(1,0)	(1,0)	(1,0)	(1,0)	(1,0)	(1,0)	(1,0)	(1,0)	(1,0)	(1,0)	(1,0)	(1,0)	
L1D -478>	(1,0)	(1,0)	(1,0)	(1,0)	(1,0)	(1,0)	(1,0)	(1,0)	(1,0)	(1,0)	(1,0)	(1,0)	(1,0)	(1,0)	(1,0)	(1,0)	
L1D -477>	(1,0)	(1,0)	(1,0)	(1,0)	(1,0)	(1,0)	(1,0)	(1,0)	(1,0)	(1,0)	(1,0)	(1,0)	(1,0)	(1,0)	(1,0)	(1,0)	
L1D -476>	(1,0)	(1,0)	(1,0)	(1,0)	(1,0)	(1,0)	(1,0)	(1,0)	(1,0)	(1,0)	(1,0)	(1,0)	(1,0)	(1,0)	(1,0)	(1,0)	
L1D -475>	(1,0)	(1,0)	(1,0)	(1,0)	(1,0)	(1,0)	(1,0)	(1,0)	(1,0)	(1,0)	(1,0)	(1,0)	(1,0)	(1,0)	(1,0)	(1,0)	
L1D -474>	(1,0)	(1,0)	(1,0)	(1,0)	(1,0)	(1,0)	(1,0)	(1,0)	(1,0)	(1,0)	(1,0)	(1,0)	(1,0)	(1,0)	(1,0)	(1,0)	
L1D -473>	(1,0)	(1,0)	(1,0)	(1,0)	(1,0)	(1,0)	(1,0)	(1,0)	(1,0)	(1,0)	(1,0)	(1,0)	(1,0)	(1,0)	(1,0)	(1,0)	
L1D -472>	(1,0)	(1,0)	(1,0)	(1,0)	(1,0)	(1,0)	(1,0)	(1,0)	(1,0)	(1,0)	(1,0)	(1,0)	(1,0)	(1,0)	(1,0)	(1,0)	
L1D -471>	(1,0)	(1,0)	(1,0)	(1,0)	(1,0)	(1,0)	(1,0)	(1,0)	(1,0)	(1,0)	(1,0)	(1,0)	(1,0)	(1,0)	(1,0)	(1,0)	
L1D -470>	(1,0)	(1,0)	(1,0)	(1,0)	(1,0)	(1,0)	(1,0)	(1,0)	(1,0)	(1,0)	(1,0)	(1,0)	(1,0)	(1,0)	(1,0)	(1,0)	
L1D -469>	(1,0)	(1,0)	(1,0)	(1,0)	(1,0)	(1,0)	(1,0)	(1,0)	(1,0)	(1,0)	(1,0)	(1,0)	(1,0)	(1,0)	(1,0)	(1,0)	
L1D -468>	(1,0)	(1,0)	(1,0)	(1,0)	(1,0)	(1,0)	(1,0)	(1,0)	(1,0)	(1,0)	(1,0)	(1,0)	(1,0)	(1,0)	(1,0)	(1,0)	
L1D -467>	(1,0)	(1,0)	(1,0)	(1,0)	(1,0)	(1,0)	(1,0)	(1,0)	(1,0)	(1,0)	(1,0)	(1,0)	(1,0)	(1,0)	(1,0)	(1,0)	
L1D -466>	(1,0)	(1,0)	(1,0)	(1,0)	(1,0)	(1,0)	(1,0)	(1,0)	(1,0)	(1,0)	(1,0)	(1,0)	(1,0)	(1,0)	(1,0)	(1,0)	
L1D -465>	(1,0)	(1,0)	(1,0)	(1,0)	(1,0)	(1,0)	(1,0)	(1,0)	(1,0)	(1,0)	(1,0)	(1,0)	(1,0)	(1,0)	(1,0)	(1,0)	
L1D -464>	(1,0)	(1,0)	(1,0)	(1,0)	(1,0)	(1,0)	(1,0)	(1,0)	(1,0)	(1,0)	(1,0)	(1,0)	(1,0)	(1,0)	(1,0)	(1,0)	
L1D -463>	(1,0)	(1,0)	(1,0)	(1,0)	(1,0)	(1,0)	(1,0)	(1,0)	(1,0)	(1,0)	(1,0)	(1,0)	(1,0)	(1,0)	(1,0)	(1,0)	
L1D -462>	(1,0)	(1,0)	(1,0)	(1,0)	(1,0)	(1,0)	(1,0)	(1,0)	(1,0)	(1,0)	(1,0)	(1,0)	(1,0)	(1,0)	(1,0)	(1,0)	
L1D -461>	(1,0)	(1,0)	(1,0)	(1,0)	(1,0)	(1,0)	(1,0)	(1,0)	(1,0)	(1,0)	(1,0)	(1,0)	(1,0)	(1,0)	(1,0)	(1,0)	
L1D -460>	(1,0)	(1,0)	(1,0)	(1,0)	(1,0)	(1,0)	(1,0)	(1,0)	(1,0)	(1,0)	(1,0)	(1,0)	(1,0)	(1,0)	(1,0)	(1,0)	
L1D -459>	(1,0)	(1,0)	(1,0)	(1,0)	(1,0)	(1,0)	(1,0)	(1,0)	(1,0)	(1,0)	(1,0)	(1,0)	(1,0)	(1,0)	(1,0)	(1,0)	
L1D -458>	(1,0)	(1,0)	(1,0)	(1,0)	(1,0)	(1,0)	(1,0)	(1,0)	(1,0)	(1,0)	(1,0)	(1,0)	(1,0)	(1,0)	(1,0)	(1,0)	
L1D -457>	(1,0)	(1,0)	(1,0)	(1,0)	(1,0)	(1,0)	(1,0)	(1,0)	(1,0)	(1,0)	(1,0)	(1,0)	(1,0)	(1,0)	(1,0)	(1,0)	
L1D -456>	(1,0)	(1,0)	(1,0)	(1,0)	(1,0)	(1,0)	(1,0)	(1,0)	(1,0)	(1,0)	(1,0)	(1,0)	(1,0)	(1,0)	(1,0)	(1,0)	
L1D -455>	(1,0)	(1,0)	(1,0)	(1,0)	(1,0)	(1,0)	(1,0)	(1,0)	(1,0)	(1,0)	(1,0)	(1,0)	(1,0)	(1,0)	(1,0)	(1,0)	
L1D -454>	(1,0)	(1,0)	(1,0)	(1,0)	(1,0)	(1,0)	(1,0)	(1,0)	(1,0)	(1,0)	(1,0)	(1,0)	(1,0)	(1,0)	(1,0)	(1,0)	
L1D -453>	(1,0)	(1,0)	(1,0)	(1,0)	(1,0)	(1,0)	(1,0)	(1,0)	(1,0)	(1,0)	(1,0)	(1,0)	(1,0)	(1,0)	(1,0)	(1,0)	
L1D -452>	(1,0)	(1,0)	(1,0)	(1,0)	(1,0)	(1,0)	(1,0)	(1,0)	(1,0)	(1,0)	(1,0)	(1,0)	(1,0)	(1,0)	(1,0)	(1,0)	
L1D -451>	(1,0)	(1,0)	(1,0)	(1,0)	(1,0)	(1,0)	(1,0)	(1,0)	(1,0)	(1,0)	(1,0)	(1,0)	(1,0)	(1,0)	(1,0)	(1,0)	
L1D -450>	(1,0)	(1,0)	(1,0)	(1,0)	(1,0)	(1,0)	(1,0)	(1,0)	(1,0)	(1,0)	(1,0)	(1,0)	(1,0)	(1,0)	(1,0)	(1,0)	
L1D -449>	(1,0)	(1,0)	(1,0)	(1,0)	(1,0)	(1,0)	(1,0)	(1,0)	(1,0)	(1,0)	(1,0)	(1,0)	(1,0)	(1,0)	(1,0)	(1,0)	
L1D -448>	(1,0)	(1,0)	(1,0)	(1,0)	(1,0)	(1,0)	(1,0)	(1,0)	(1,0)	(1,0)	(1,0)	(1,0)	(1,0)	(1,0)	(1,0)	(1,0)	
L1D -447>	(0,2)	(1,0)	(1,0)	(1,0)	(1,0)	(1,0)	(1,0)	(1,0)	(1,0)	(1,0)	(1,0)	(1,0)	(1,0)	(1,0)	(1,0)	(1,0)	
L1D -446>	(1,0)	(1,0)	(1,0)	(1,0)	(1,0)	(1,0)	(1,0)	(1,0)	(1,0)	(1,0)	(1,0)	(1,0)	(1,0)	(1,0)	(1,0)	(1,0)	
L1D -445>	(1,0)	(1,0)	(1,0)	(1,0)	(1,0)	(1,0)	(1,0)	(1,0)	(1,0)	(1,0)	(1,0)	(1,0)	(1,0)	(1,0)	(1,0)	(1,0)	
L1D -444>	(1,0)	(1,0)	(1,0)	(1,0)	(1,0)	(1,0)	(1,0)	(1,0)	(1,0)	(1,0)	(1,0)	(1,0)	(1,0)	(1,0)	(1,0)	(1,0)	
L1D -443>	(1,0)	(1,0)	(1,0)	(1,0)	(1,0)	(1,0)	(1,0)	(1,0)	(1,0)	(1,0)	(1,0)	(1,0)	(1,0)	(1,0)	(1,0)	(1,0)	
L1D -442>	(1,0)	(1,0)	(1,0)	(1,0)	(1,0)	(1,0)	(1,0)	(1,0)	(1,0)	(1,0)	(1,0)	(1,0)	(1,0)	(1,0)	(1,0)	(1,0)	
L1D -441>	(1,0)	(1,0)	(1,0)	(1,0)	(1,0)	(1,0)	(1,0)	(1,0)	(1,0)	(1,0)	(1,0)	(1,0)	(1,0)	(1,0)	(1,0)	(1,0)	
L1D -440>	(1,0)	(1,0)	(1,0)	(1,0)	(1,0)	(1,0)	(1,0)	(1,0)	(1,0)	(1,0)	(1,0)	(1,0)	(1,0)	(1,0)	(1,0)	(1,0)	
L1D -439>	(1,0)	(1,0)	(1,0)	(1,0)	(1,0)	(1,0)	(1,0)	(1,0)	(1,0)	(1,0)	(1,0)	(1,0)	(1,0)	(1,0)	(1,0)	(1,0)	
L1D -438>	(1,0)	(1,0)	(1,0)	(1,0)	(1,0)	(1,0)	(1,0)	(1,0)	(1,0)	(1,0)	(1,0)	(1,0)	(1,0)	(1,0)	(1,0)	(1,0)	
L1D -437>	(1,0)	(1,0)	(1,0)	(1,0)	(1,0)	(1,0)	(1,0)	(1,0)	(1,0)	(1,0)	(1,0)	(1,0)	(1,0)	(1,0)	(1,0)	(1,0)	
L1D -436>	(1,0)	(1,0)	(1,0)	(1,0)	(1,0)	(1,0)	(1,0)	(1,0)	(1,0)	(1,0)	(1,0)	(1,0)	(1,0)	(1,0)	(1,0)	(1,0)	
L1D -435>	(1,0)	(1,0)	(1,0)	(1,0)	(1,0)	(1,0)	(1,0)	(1,0)	(1,0)	(1,0)	(1,0)	(1,0)	(1,0)	(1,0)	(1,0)	(1,0)	
L1D -434>	(1,0)	(1,0)	(1,0)	(1,0)	(1,0)	(1,0)	(1,0)	(1,0)	(1,0)	(1,0)	(1,0)	(1,0)	(1,0)	(1,0)	(1,0)	(1,0)	
L1D -433>	(1,0)	(1,0)	(1,0)	(1,0)	(1,0)	(1,0)	(1,0)	(1,0)	(1,0)	(1,0)	(1,0)	(1,0)	(1,0)	(1,0)	(1,0)	(1,0)	
L1D -432>	(1,0)	(1,0)	(1,0)	(1,0)	(1,0)	(1,0)	(1,0)	(1,0)	(1,0)	(1,0)	(1,0)	(1,0)	(1,0)	(1,0)	(1,0)	(1,0)	
L1D -431>	(1,0)	(1,0)	(1,0)	(1,0)	(1,0)	(1,0)	(1,0)	(1,0)	(1,0)	(1,0)	(1,0)	(1,0)	(1,0)	(1,0)	(1,0)	(1,0)	
L1D -430>	(1,0)	(1,0)	(1,0)	(1,0)	(1,0)	(1,0)	(1,0)	(1,0)	(1,0)	(1,0)	(1,0)	(1,0)	(1,0)	(1,0)	(1,0)	(1,0)	
L1D -429>	(1,0)	(1,0)	(1,0)	(1,0)	(1,0)	(1,0)	(1,0)	(1,0)	(1,0)	(1,0)	(1,0)	(1,0)	(1,0)	(1,0)	(1,0)	(1,0)	
L1D -428>	(1,0)	(1,0)	(1,0)	(1,0)	(1,0)	(1,0)	(1,0)	(1,0)	(1,0)	(1,0)	(1,0)	(1,0)	(1,0)	(1,0)	(1,0)	(1,0)	
L1D -427>	(1,0)	(1,0)	(1,0)	(1,0)	(1,0)	(1,0)	(1,0)	(1,0)	(1,0)	(1,0)	(1,0)	(1,0)	(1,0)	(1,0)	(1,0)	(1,0)	
L1D -426>	(1,0)	(1,0)	(1,0)	(1,0)	(1,0)	(1,0)	(1,0)	(1,0)	(1,0)	(1,0)	(1,0)	(1,0)	(1,0)	(1,0)	(1,0)	(1,0)	
L1D -425>	(1,0)	(1,0)	(1,0)	(1,0)	(1,0)	(1,0)	(1,0)	(1,0)	(1,0)	(1,0)	(1,0)	(1,0)	(1,0)	(1,0)	(1,0)	(1,0)	
L1D -424>	(1,0)	(1,0)	(1,0)	(1,0)	(1,0)	(1,0)	(1,0)	(1,0)	(1,0)	(1,0)	(1,0)	(1,0)	(1,0)	(1,0)	(1,0)	(1,0)	
L1D -423>	(1,0)	(1,0)	(1,0)	(1,0)	(1,0)	(1,0)	(1,0)	(1,0)	(1,0)	(1,0)	(1,0)	(1,0)	(1,0)	(1,0)	(1,0)	(1,0)	
L1D -422>	(1,0)	(1,0)	(1,0)	(1,0)	(1,0)	(1,0)	(1,0)	(1,0)	(1,0)	(1,0)	(1,0)	(1,0)	(1,0)	(1,0)	(1,0)	(1,0)	
L1D -421>	(1,0)	(1,0)	(1,0)	(1,0)	(1,0)	(1,0)	(1,0)	(1,0)	(1,0)	(1,0)	(1,0)	(1,0)	(1,0)	(1,0)	(1,0)	(1,0)	
L1D -420>	(1,0)	(1,0)	(1,0)	(1,0)	(1,0)	(1,0)	(1,0)	(1,0)	(1,0)	(1,0)	(1,0)	(1,0)	(1,0)	(1,0)	(1,0)	(1,0)	
L1D -419>	(1,0)	(1,0)	(1,0)	(1,0)	(1,0)	(1,0)	(1,0)	(1,0)	(1,0)	(1,0)	(1,0)	(1,0)	(1,0)	(1,0)	(1,0)	(1,0)	
L1D -418>	(1,0)	(1,0)	(1,0)	(1,0)	(1,0)	(1,0)	(1,0)	(1,0)	(1,0)	(1,0)	(1,0)	(1,0)	(1,0)	(1,0)	(1,0)	(1,0)	
L1D -417>	(1,0)	(1,0)	(1,0)	(1,0)	(1,0)	(1,0)	(1,0)	(1,0)	(1,0)	(1,0)	(1,0)	(1,0)	(1,0)	(1,0)	(1,0)	(1,0)	
L1D -416>	(1,0)	(1,0)	(1,0)	(1,0)	(1,0)	(1,0)	(1,0)	(1,0)	(1,0)	(1,0)	(1,0)	(1,0)	(1,0)	(1,0)	(1,0)	(1,0)	
L1D -415>	(1,0)	(1,0)	(1,0)	(1,0)	(1,0)	(1,0)	(1,0)	(1,0)	(1,0)	(1,0)	(1,0)	(1,0)	(1,0)	(1,0)	(1,0)	(1,0)	
L1D -414>	(1,0)	(1,0)	(1,0)	(1,0)	(1,0)	(1,0)	(1,0)	(1,0)	(1,0)	(1,0)	(1,0)	(1,0)	(1,0)	(1,0)	(1,0)	(1,0)	
L1D -413>	(1,0)	(1,0)	(1,0)	(1,0)	(1,0)	(1,0)	(1,0)	(1,0)	(1,0)	(1,0)	(1,0)	(1,0)	(1,0)	(1,0)	(1,0)	(1,0)	
L1D -412>	(1,0)	(1,0)	(1,0)	(1,0)	(1,0)	(1,0)	(1,0)	(1,0)	(1,0)	(1,0)	(1,0)	(1,0)	(1,0)	(1,0)	(1,0)	(1,0)	
L1D -411>	(1,0)	(1,0)	(1,0)	(1,0)	(1,0)	(1,0)	(1,0)	(1,0)	(1,0)	(1,0)	(1,0)	(1,0)	(1,0)	(1,0)	(1,0)	(1,0)	
L1D -410>	(1,0)	(1,0)	(1,0)	(1,0)	(1,0)	(1,0)	(1,0)	(1,0)	(1,0)	(1,0)	(1,0)	(1,0)	(1,0)	(1,0)	(1,0)	(1,0)	
L1D -409>	(1,0)	(1,0)	(1,0)	(1,0)	(1,0)	(1,0)	(1,0)	(1,0)	(1,0)	(1,0)	(1,0)	(1,0)	(1,0)	(1,0)	(1,0)	(1,0)	
L1D -408>	(1,0)	(1,0)	(1,0)	(1,0)	(1,0)	(1,0)	(1,0)	(1,0)	(1,0)	(1,0)	(1,0)	(1,0)	(1,0)	(1,0)	(1,0)	(1,0)	
L1D -407>	(4,3)	(0,18)	(44,2)	(9,4)	(2,1)	(3,5)	(1,1)	(1,0)	(1,0)	(1,0)	(1,0)	(1,0)	(1,0)	(1,0)	(1,0)	(1,0)	
L1D -406>	(1,2)	(3,5)	(0,7)	(9,8)	(44,3)	(4,2)	(1,0)	(1,0)	(1,0)	(1,0)	(1,0)	(1,0)	(1,0)	(1,0)	(1,0)	(1,0)	
L1D -405>	(395,51)	(0,6)	(3,3)	(9,1)	(4,1)	(1,0)	(1,0)	(1,0)	(1,0)	(1,0)	(1,0)	(1,0)	(1,0)	(1,0)	(1,0)	(1,0)	
L1D -404>	(0,5)	(5,12)	(44,29)	(49,15)	(9,3)	(368,2)	(372,1)	(4,1)	(1,0)	(1,0)	(1,0)	(1,0)	(1,0)	(1,0)	(1,0)	(1,0)	
L1D -403>	(4,8)	(9,3)	(0,12)	(44,30)	(48,13)	(1,1)	(3,2)	(5,1)	(1,0)	(1,0)	(1,0)	(1,0)	(1,0)	(1,0)	(1,0)	(1,0)	
L1D -402>	(1,3)	(2,5)	(3,6)	(9,2)	(4,1)	(366,1)	(44,1)	(5,1)	(1,0)	(1,0)	(1,0)	(1,0)	(1,0)	(1,0)	(1,0)	(1,0)	
L1D -401>	(9,1)	(3,1)	(1,0)	(1,0)	(1,0)	(1,0)	(1,0)	(1,0)	(1,0)	(1,0)	(1,0)	(1,0)	(1,0)	(1,0)	(1,0)	(1,0)	
L1D -400>	(5,9)	(44,8)	(367,2)	(1,0)	(1,0)	(1,0)	(1,0)	(1,0)	(1,0)	(1,0)	(1,0)	(1,0)	(1,0)	(1,0)	(1,0)	(1,0)	
L1D -399>	(4,6)	(5,6)	(9,59)	(0,1)	(2,1)	(3,1)	(1,0)	(1,0)	(1,0)	(1,0)	(1,0)	(1,0)	(1,0)	(1,0)	(1,0)	(1,0)	
L1D -398>	(1,0)	(1,0)	(1,0)	(1,0)	(1,0)	(1,0)	(1,0)	(1,0)	(1,0)	(1,0)	(1,0)	(1,0)	(1,0)	(1,0)	(1,0)	(1,0)	
L1D -397>	(1,0)	(1,0)	(1,0)	(1,0)	(1,0)	(1,0)	(1,0)	(1,0)	(1,0)	(1,0)	(1,0)	(1,0)	(1,0)	(1,0)	(1,0)	(1,0)	
L1D -396>	(1,1)	(4,2)	(3,1)	(1,0)	(1,0)	(1,0)	(1,0)	(1,0)	(1,0)	(1,0)	(1,0)	(1,0)	(1,0)	(1,0)	(1,0)	(1,0)	
L1D -395>	(1,2)	(0,1)	(9,9)	(5,8)	(44,2)	(367,2)	(1,0)	(1,0)	(1,0)	(1,0)	(1,0)	(1,0)	(1,0)	(1,0)	(1,0)	(1,0)	
L1D -394>	(0,1)	(9,6)	(5,3)	(1,0)	(1,0)	(1,0)	(1,0)	(1,0)	(1,0)	(1,0)	(1,0)	(1,0)	(1,0)	(1,0)	(1,0)	(1,0)	
L1D -393>	(1,0)	(1,0)	(1,0)	(1,0)	(1,0)	(1,0)	(1,0)	(1,0)	(1,0)	(1,0)	(1,0)	(1,0)	(1,0)	(1,0)	(1,0)	(1,0)	
L1D -392>	(44,1)	(4,1)	(5,2)	(1,0)	(1,0)	(1,0)	(1,0)	(1,0)	(1,0)	(1,0)	(1,0)	(1,0)	(1,0)	(1,0)	(1,0)	(1,0)	
L1D -391>	(9,2)	(5,4)	(368,3)	(1,0)	(1,0)	(1,0)	(1,0)	(1,0)	(1,0)	(1,0)	(1,0)	(1,0)	(1,0)	(1,0)	(1,0)	(1,0)	
L1D -390>	(5,3)	(4,3)	(9,1)	(1,0)	(1,0)	(1,0)	(1,0)	(1,0)	(1,0)	(1,0)	(1,0)	(1,0)	(1,0)	(1,0)	(1,0)	(1,0)	
L1D -389>	(1,0)	(1,0)	(1,0)	(1,0)	(1,0)	(1,0)	(1,0)	(1,0)	(1,0)	(1,0)	(1,0)	(1,0)	(1,0)	(1,0)	(1,0)	(1,0)	
L1D -388>	(1,1)	(3,1)	(0,1)	(1,0)	(1,0)	(1,0)	(1,0)	(1,0)	(1,0)	(1,0)	(1,0)	(1,0)	(1,0)	(1,0)	(1,0)	(1,0)	
L1D -387>	(1,1)	(1,0)	(1,0)	(1,0)	(1,0)	(1,0)	(1,0)	(1,0)	(1,0)	(1,0)	(1,0)	(1,0)	(1,0)	(1,0)	(1,0)	(1,0)	
L1D -386>	(5,8)	(9,9)	(395,1)	(391,1)	(1,1)	(366,1)	(44,2)	(1,0)	(1,0)	(1,0)	(1,0)	(1,0)	(1,0)	(1,0)	(1,0)	(1,0)	
L1D -385>	(365,1)	(1,0)	(1,0)	(1,0)	(1,0)	(1,0)	(1,0)	(1,0)	(1,0)	(1,0)	(1,0)	(1,0)	(1,0)	(1,0)	(1,0)	(1,0)	
L1D -384>	(1,1)	(5,2)	(6,1)	(1,0)	(1,0)	(1,0)	(1,0)	(1,0)	(1,0)	(1,0)	(1,0)	(1,0)	(1,0)	(1,0)	(1,0)	(1,0)	
L1D -383>	(44,1)	(1,1)	(6,1)	(368,2)	(5,2)	(1,0)	(1,0)	(1,0)	(1,0)	(1,0)	(1,0)	(1,0)	(1,0)	(1,0)	(1,0)	(1,0)	
L1D -382>	(366,3)	(5,3)	(49,1)	(9,1)	(368,1)	(1,0)	(1,0)	(1,0)	(1,0)	(1,0)	(1,0)	(1,0)	(1,0)	(1,0)	(1,0)	(1,0)	
L1D -381>	(4,3)	(0,4)	(9,2)	(390,1)	(44,2)	(1,0)	(1,0)	(1,0)	(1,0)	(1,0)	(1,0)	(1,0)	(1,0)	(1,0)	(1,0)	(1,0)	
L1D -380>	(1,5)	(44,1)	(45,1)	(2,2)	(365,1)	(1,0)	(1,0)	(1,0)	(1,0)	(1,0)	(1,0)	(1,0)	(1,0)	(1,0)	(1,0)	(1,0)	
L1D -379>	(44,2)	(1,0)	(1,0)	(1,0)	(1,0)	(1,0)	(1,0)	(1,0)	(1,0)	(1,0)	(1,0)	(1,0)	(1,0)	(1,0)	(1,0)	(1,0)	
L1D -378>	(5,13)	(44,1)	(4,5)	(1,5)	(10,1)	(54,3)	(1,0)	(1,0)	(1,0)	(1,0)	(1,0)	(1,0)	(1,0)	(1,0)	(1,0)	(1,0)	
L1D -377>	(4,9)	(44,10)	(9,2)	(54,1)	(49,2)	(53,2)	(5,8)	(1,5)	(10,1)	(-26,1)	(1,0)	(1,0)	(1,0)	(1,0)	(1,0)	(1,0)	
L1D -376>	(9,3)	(44,1)	(4,5)	(1,0)	(1,0)	(1,0)	(1,0)	(1,0)	(1,0)	(1,0)	(1,0)	(1,0)	(1,0)	(1,0)	(1,0)	(1,0)	
L1D -375>	(368,2)	(3,1)	(1,0)	(1,0)	(1,0)	(1,0)	(1,0)	(1,0)	(1,0)	(1,0)	(1,0)	(1,0)	(1,0)	(1,0)	(1,0)	(1,0)	
L1D -374>	(125,1)	(0,1)	(5,6)	(1,3)	(4,3)	(50,2)	(1,0)	(1,0)	(1,0)	(1,0)	(1,0)	(1,0)	(1,0)	(1,0)	(1,0)	(1,0)	
L1D -373>	(5,13)	(4,17)	(1,3)	(50,2)	(125,3)	(366,1)	(-31,3)	(49,6)	(0,1)	(-26,1)	(-13,1)	(1,0)	(1,0)	(1,0)	(1,0)	(1,0)	
L1D -372>	(1,9)	(5,8)	(-6,4)	(44,4)	(4,4)	(359,1)	(0,1)	(1,0)	(1,0)	(1,0)	(1,0)	(1,0)	(1,0)	(1,0)	(1,0)	(1,0)	
L1D -371>	(0,1)	(363,4)	(1,5)	(45,5)	(1,0)	(1,0)	(1,0)	(1,0)	(1,0)	(1,0)	(1,0)	(1,0)	(1,0)	(1,0)	(1,0)	(1,0)	
L1D -370>	(370,1)	(363,2)	(45,6)	(1,4)	(3,7)	(44,3)	(1,0)	(1,0)	(1,0)	(1,0)	(1,0)	(1,0)	(1,0)	(1,0)	(1,0)	(1,0)	
L1D -369>	(1,20)	(45,13)	(0,4)	(5,15)	(46,3)	(363,3)	(-2,1)	(4,5)	(-3,2)	(-9,1)	(-8,1)	(371,2)	(-1,1)	(2,1)	(1,0)	(1,0)	
L1D -368>	(1,70)	(4,17)	(5,8)	(48,5)	(49,5)	(2,9)	(-9,12)	(45,91)	(0,32)	(44,127)	(-5,13)	(41,1)	(-27,2)	(-10,4)	(9,2)	(-1,4)	
L1D -367>	(0,38)	(1,21)	(44,99)	(45,1)	(62,0)	(-1,5)	(-5,5)	(-6,2)	(-9,6)	(4,5)	(9,0)	(-10,5)	(3,2)	(2,1)	(-3,0)	(287,0)	
L1D -366>	(0,11)	(366,4)	(1,14)	(2,6)	(9,3)	(3,4)	(44,6)	(45,1)	(1,0)	(1,0)	(1,0)	(1,0)	(1,0)	(1,0)	(1,0)	(1,0)	
L1D -365>	(366,7)	(1,6)	(44,1)	(41,2)	(5,4)	(2,1)	(9,2)	(0,2)	(45,5)	(-3,2)	(3,3)	(42,1)	(1,0)	(1,0)	(1,0)	(1,0)	
L1D -364>	(1,4)	(-3,1)	(44,79)	(5,27)	(49,28)	(-35,2)	(40,1)	(125,1)	(-31,2)	(-26,1)	(-4,0)	(41,1)	(4,1)	(1,0)	(1,0)	(1,0)	
L1D -363>	(-27,2)	(44,78)	(4,13)	(2,1)	(39,1)	(9,2)	(-36,2)	(48,11)	(-31,1)	(5,2)	(40,1)	(327,0)	(125,0)	(3,0)	(1,0)	(-4,1)	
L1D -362>	(125,1)	(9,2)	(0,1)	(4,1)	(2,2)	(3,1)	(1,0)	(1,0)	(1,0)	(1,0)	(1,0)	(1,0)	(1,0)	(1,0)	(1,0)	(1,0)	
L1D -361>	(331,1)	(0,1)	(125,3)	(3,1)	(4,2)	(1,0)	(1,0)	(1,0)	(1,0)	(1,0)	(1,0)	(1,0)	(1,0)	(1,0)	(1,0)	(1,0)	
L1D -360>	(5,35)	(1,5)	(41,2)	(0,1)	(18,1)	(36,3)	(4,9)	(40,1)	(37,1)	(-8,1)	(9,1)	(1,0)	(1,0)	(1,0)	(1,0)	(1,0)	
L1D -359>	(40,2)	(4,4)	(0,3)	(44,1)	(3,5)	(5,15)	(9,16)	(1,12)	(2,5)	(36,4)	(35,1)	(18,1)	(1,0)	(1,0)	(1,0)	(1,0)	
L1D -358>	(9,14)	(4,9)	(1,3)	(3,1)	(1,0)	(1,0)	(1,0)	(1,0)	(1,0)	(1,0)	(1,0)	(1,0)	(1,0)	(1,0)	(1,0)	(1,0)	
L1D -357>	(1,0)	(1,0)	(1,0)	(1,0)	(1,0)	(1,0)	(1,0)	(1,0)	(1,0)	(1,0)	(1,0)	(1,0)	(1,0)	(1,0)	(1,0)	(1,0)	
L1D -356>	(41,49)	(32,1)	(5,3)	(0,1)	(1,0)	(1,0)	(1,0)	(1,0)	(1,0)	(1,0)	(1,0)	(1,0)	(1,0)	(1,0)	(1,0)	(1,0)	
L1D -355>	(0,3)	(4,57)	(5,51)	(9,17)	(18,1)	(31,3)	(1,3)	(40,2)	(1,0)	(1,0)	(1,0)	(1,0)	(1,0)	(1,0)	(1,0)	(1,0)	
L1D -354>	(1,11)	(9,7)	(1,0)	(1,0)	(1,0)	(1,0)	(1,0)	(1,0)	(1,0)	(1,0)	(1,0)	(1,0)	(1,0)	(1,0)	(1,0)	(1,0)	
L1D -353>	(0,1)	(1,0)	(1,0)	(1,0)	(1,0)	(1,0)	(1,0)	(1,0)	(1,0)	(1,0)	(1,0)	(1,0)	(1,0)	(1,0)	(1,0)	(1,0)	
L1D -352>	(44,1)	(1,0)	(1,0)	(1,0)	(1,0)	(1,0)	(1,0)	(1,0)	(1,0)	(1,0)	(1,0)	(1,0)	(1,0)	(1,0)	(1,0)	(1,0)	
L1D -351>	(27,5)	(0,19)	(4,3)	(40,1)	(327,1)	(9,2)	(1,0)	(1,0)	(1,0)	(1,0)	(1,0)	(1,0)	(1,0)	(1,0)	(1,0)	(1,0)	
L1D -350>	(44,1)	(9,3)	(4,2)	(5,3)	(326,1)	(1,0)	(1,0)	(1,0)	(1,0)	(1,0)	(1,0)	(1,0)	(1,0)	(1,0)	(1,0)	(1,0)	
L1D -349>	(325,1)	(1,0)	(1,0)	(1,0)	(1,0)	(1,0)	(1,0)	(1,0)	(1,0)	(1,0)	(1,0)	(1,0)	(1,0)	(1,0)	(1,0)	(1,0)	
L1D -348>	(1,0)	(1,0)	(1,0)	(1,0)	(1,0)	(1,0)	(1,0)	(1,0)	(1,0)	(1,0)	(1,0)	(1,0)	(1,0)	(1,0)	(1,0)	(1,0)	
L1D -347>	(1,1)	(0,4)	(3,2)	(-44,3)	(23,2)	(1,0)	(1,0)	(1,0)	(1,0)	(1,0)	(1,0)	(1,0)	(1,0)	(1,0)	(1,0)	(1,0)	
L1D -346>	(1,1)	(40,6)	(22,7)	(9,5)	(355,3)	(350,2)	(5,1)	(1,0)	(1,0)	(1,0)	(1,0)	(1,0)	(1,0)	(1,0)	(1,0)	(1,0)	
L1D -345>	(9,2)	(326,2)	(1,0)	(1,0)	(1,0)	(1,0)	(1,0)	(1,0)	(1,0)	(1,0)	(1,0)	(1,0)	(1,0)	(1,0)	(1,0)	(1,0)	
L1D -344>	(5,3)	(1,0)	(1,0)	(1,0)	(1,0)	(1,0)	(1,0)	(1,0)	(1,0)	(1,0)	(1,0)	(1,0)	(1,0)	(1,0)	(1,0)	(1,0)	
L1D -343>	(125,1)	(1,3)	(9,1)	(327,2)	(5,1)	(6,1)	(1,0)	(1,0)	(1,0)	(1,0)	(1,0)	(1,0)	(1,0)	(1,0)	(1,0)	(1,0)	
L1D -342>	(18,7)	(40,4)	(0,7)	(125,3)	(41,3)	(-44,1)	(1,0)	(1,0)	(1,0)	(1,0)	(1,0)	(1,0)	(1,0)	(1,0)	(1,0)	(1,0)	
L1D -341>	(286,1)	(326,3)	(5,4)	(4,1)	(3,1)	(1,0)	(1,0)	(1,0)	(1,0)	(1,0)	(1,0)	(1,0)	(1,0)	(1,0)	(1,0)	(1,0)	
L1D -340>	(44,2)	(1,1)	(3,2)	(286,2)	(1,0)	(1,0)	(1,0)	(1,0)	(1,0)	(1,0)	(1,0)	(1,0)	(1,0)	(1,0)	(1,0)	(1,0)	
L1D -339>	(1,2)	(124,54)	(114,116)	(2,3)	(44,1)	(1,0)	(1,0)	(1,0)	(1,0)	(1,0)	(1,0)	(1,0)	(1,0)	(1,0)	(1,0)	(1,0)	
L1D -338>	(14,6)	(-44,2)	(41,1)	(1,0)	(1,0)	(1,0)	(1,0)	(1,0)	(1,0)	(1,0)	(1,0)	(1,0)	(1,0)	(1,0)	(1,0)	(1,0)	
L1D -337>	(0,1)	(326,3)	(13,6)	(40,6)	(54,2)	(9,4)	(5,3)	(-44,1)	(1,3)	(4,2)	(346,1)	(1,0)	(1,0)	(1,0)	(1,0)	(1,0)	
L1D -336>	(5,1)	(318,3)	(34,2)	(277,1)	(43,2)	(286,19)	(0,2)	(345,1)	(9,1)	(1,0)	(1,0)	(1,0)	(1,0)	(1,0)	(1,0)	(1,0)	
L1D -335>	(327,2)	(-44,2)	(1,0)	(1,0)	(1,0)	(1,0)	(1,0)	(1,0)	(1,0)	(1,0)	(1,0)	(1,0)	(1,0)	(1,0)	(1,0)	(1,0)	
L1D -334>	(44,1)	(0,1)	(9,14)	(5,82)	(41,4)	(10,2)	(-44,1)	(1,0)	(1,0)	(1,0)	(1,0)	(1,0)	(1,0)	(1,0)	(1,0)	(1,0)	
L1D -333>	(0,18)	(41,6)	(4,24)	(5,18)	(1,2)	(40,13)	(9,11)	(13,3)	(125,1)	(325,1)	(1,0)	(1,0)	(1,0)	(1,0)	(1,0)	(1,0)	
L1D -332>	(330,4)	(9,7)	(44,3)	(327,1)	(1,0)	(1,0)	(1,0)	(1,0)	(1,0)	(1,0)	(1,0)	(1,0)	(1,0)	(1,0)	(1,0)	(1,0)	
L1D -331>	(0,2)	(331,2)	(332,2)	(358,7)	(1,3)	(330,1)	(326,7)	(286,19)	(318,5)	(34,2)	(196,1)	(322,1)	(1,0)	(1,0)	(1,0)	(1,0)	
L1D -330>	(330,1)	(124,33)	(9,15)	(367,12)	(43,30)	(114,45)	(322,3)	(6,1)	(331,3)	(4,3)	(205,4)	(41,1)	(1,1)	(3,1)	(1,0)	(1,0)	
L1D -329>	(0,12)	(9,44)	(1,1)	(41,42)	(40,84)	(5,22)	(331,2)	(4,9)	(318,2)	(3,4)	(322,0)	(1,0)	(1,0)	(1,0)	(1,0)	(1,0)	
L1D -328>	(0,42)	(1,15)	(41,3)	(4,15)	(45,1)	(368,106)	(44,1)	(5,13)	(369,3)	(-8,3)	(9,20)	(2,1)	(40,11)	(329,2)	(3,2)	(325,1)	
L1D -327>	(0,15)	(40,2)	(4,5)	(327,3)	(368,110)	(1,13)	(2,10)	(3,11)	(44,4)	(43,1)	(41,4)	(-1,6)	(8,4)	(-6,1)	(45,2)	(-5,3)	
L1D -326>	(1,14)	(327,7)	(326,3)	(81,1)	(40,8)	(2,13)	(0,16)	(-44,3)	(367,1)	(3,2)	(41,2)	(1,0)	(1,0)	(1,0)	(1,0)	(1,0)	
L1D -325>	(9,7)	(3,1)	(0,6)	(1,16)	(41,95)	(5,12)	(40,6)	(2,2)	(1,0)	(1,0)	(1,0)	(1,0)	(1,0)	(1,0)	(1,0)	(1,0)	
L1D -324>	(2,3)	(-1,3)	(41,118)	(40,91)	(0,28)	(5,16)	(9,7)	(4,6)	(-5,2)	(-4,6)	(1,1)	(-3,3)	(3,2)	(-44,12)	(81,5)	(-45,0)	
L1D -323>	(-1,6)	(0,30)	(5,2)	(-26,2)	(4,8)	(1,8)	(44,42)	(9,23)	(3,19)	(40,119)	(-44,19)	(41,5)	(81,8)	(2,4)	(-45,10)	(283,1)	
L1D -322>	(44,1)	(1,5)	(40,12)	(41,2)	(5,1)	(2,14)	(3,8)	(0,5)	(-8,1)	(1,0)	(1,0)	(1,0)	(1,0)	(1,0)	(1,0)	(1,0)	
L1D -321>	(1,15)	(40,2)	(3,6)	(41,12)	(-3,4)	(0,7)	(9,1)	(1,0)	(1,0)	(1,0)	(1,0)	(1,0)	(1,0)	(1,0)	(1,0)	(1,0)	
L1D -320>	(0,29)	(26,12)	(-4,18)	(41,105)	(1,11)	(9,21)	(4,3)	(-1,1)	(-2,1)	(40,81)	(-8,2)	(5,15)	(-44,15)	(81,3)	(-9,8)	(1,0)	
L1D -319>	(2,4)	(18,1)	(-5,14)	(40,90)	(0,15)	(1,13)	(44,4)	(4,12)	(9,7)	(-44,23)	(-9,7)	(5,4)	(81,1)	(-8,1)	(41,2)	(162,1)	
L1D -318>	(-1,6)	(-6,7)	(314,2)	(-44,1)	(1,5)	(1,0)	(1,0)	(1,0)	(1,0)	(1,0)	(1,0)	(1,0)	(1,0)	(1,0)	(1,0)	(1,0)	
L1D -317>	(16,5)	(40,1)	(-7,9)	(1,0)	(1,0)	(1,0)	(1,0)	(1,0)	(1,0)	(1,0)	(1,0)	(1,0)	(1,0)	(1,0)	(1,0)	(1,0)	
L1D -316>	(1,6)	(41,49)	(5,7)	(40,2)	(3,2)	(26,11)	(9,2)	(-8,5)	(1,0)	(1,0)	(1,0)	(1,0)	(1,0)	(1,0)	(1,0)	(1,0)	
L1D -315>	(2,35)	(0,48)	(-4,24)	(-5,27)	(-9,7)	(41,10)	(-49,4)	(40,24)	(1,13)	(5,9)	(18,28)	(4,3)	(287,2)	(144,1)	(-12,1)	(1,0)	
L1D -314>	(0,1)	(-44,3)	(-1,2)	(41,3)	(1,0)	(1,0)	(1,0)	(1,0)	(1,0)	(1,0)	(1,0)	(1,0)	(1,0)	(1,0)	(1,0)	(1,0)	
L1D -313>	(16,13)	(0,1)	(285,1)	(1,2)	(8,1)	(1,0)	(1,0)	(1,0)	(1,0)	(1,0)	(1,0)	(1,0)	(1,0)	(1,0)	(1,0)	(1,0)	
L1D -312>	(44,1)	(5,1)	(2,4)	(9,1)	(1,0)	(1,0)	(1,0)	(1,0)	(1,0)	(1,0)	(1,0)	(1,0)	(1,0)	(1,0)	(1,0)	(1,0)	
L1D -311>	(5,2)	(1,1)	(4,3)	(0,4)	(9,1)	(1,0)	(1,0)	(1,0)	(1,0)	(1,0)	(1,0)	(1,0)	(1,0)	(1,0)	(1,0)	(1,0)	
L1D -310>	(125,1)	(4,1)	(9,3)	(5,4)	(0,4)	(16,9)	(103,1)	(1,0)	(1,0)	(1,0)	(1,0)	(1,0)	(1,0)	(1,0)	(1,0)	(1,0)	
L1D -309>	(-9,1)	(285,4)	(4,3)	(125,3)	(1,0)	(1,0)	(1,0)	(1,0)	(1,0)	(1,0)	(1,0)	(1,0)	(1,0)	(1,0)	(1,0)	(1,0)	
L1D -308>	(1,0)	(1,0)	(1,0)	(1,0)	(1,0)	(1,0)	(1,0)	(1,0)	(1,0)	(1,0)	(1,0)	(1,0)	(1,0)	(1,0)	(1,0)	(1,0)	
L1D -307>	(1,1)	(-44,3)	(3,2)	(1,0)	(1,0)	(1,0)	(1,0)	(1,0)	(1,0)	(1,0)	(1,0)	(1,0)	(1,0)	(1,0)	(1,0)	(1,0)	
L1D -306>	(1,1)	(0,8)	(1,0)	(1,0)	(1,0)	(1,0)	(1,0)	(1,0)	(1,0)	(1,0)	(1,0)	(1,0)	(1,0)	(1,0)	(1,0)	(1,0)	
L1D -305>	(314,6)	(310,3)	(9,10)	(-9,1)	(-10,6)	(-44,3)	(-11,1)	(1,0)	(1,0)	(1,0)	(1,0)	(1,0)	(1,0)	(1,0)	(1,0)	(1,0)	
L1D -304>	(5,3)	(1,0)	(1,0)	(1,0)	(1,0)	(1,0)	(1,0)	(1,0)	(1,0)	(1,0)	(1,0)	(1,0)	(1,0)	(1,0)	(1,0)	(1,0)	
L1D -303>	(44,1)	(1,1)	(5,1)	(6,2)	(8,2)	(1,0)	(1,0)	(1,0)	(1,0)	(1,0)	(1,0)	(1,0)	(1,0)	(1,0)	(1,0)	(1,0)	
L1D -302>	(302,112)	(0,35)	(1,1)	(2,0)	(287,0)	(1,0)	(1,0)	(1,0)	(1,0)	(1,0)	(1,0)	(1,0)	(1,0)	(1,0)	(1,0)	(1,0)	
L1D -301>	(19,3)	(3,9)	(1,14)	(0,12)	(-10,78)	(5,4)	(8,17)	(2,16)	(26,2)	(120,2)	(4,1)	(201,1)	(1,0)	(1,0)	(1,0)	(1,0)	
L1D -300>	(0,13)	(2,51)	(18,70)	(125,1)	(26,1)	(1,0)	(1,0)	(1,0)	(1,0)	(1,0)	(1,0)	(1,0)	(1,0)	(1,0)	(1,0)	(1,0)	
L1D -299>	(-2,2)	(-1,19)	(1,5)	(2,2)	(125,3)	(1,0)	(1,0)	(1,0)	(1,0)	(1,0)	(1,0)	(1,0)	(1,0)	(1,0)	(1,0)	(1,0)	
L1D -298>	(0,16)	(16,95)	(-2,4)	(1,2)	(-3,1)	(1,0)	(1,0)	(1,0)	(1,0)	(1,0)	(1,0)	(1,0)	(1,0)	(1,0)	(1,0)	(1,0)	
L1D -297>	(0,4)	(8,63)	(2,6)	(5,5)	(338,2)	(9,1)	(-8,1)	(1,0)	(1,0)	(1,0)	(1,0)	(1,0)	(1,0)	(1,0)	(1,0)	(1,0)	
L1D -296>	(0,1)	(5,1)	(9,1)	(4,1)	(337,1)	(284,1)	(1,0)	(1,0)	(1,0)	(1,0)	(1,0)	(1,0)	(1,0)	(1,0)	(1,0)	(1,0)	
L1D -295>	(-16,4)	(-44,3)	(16,1)	(1,0)	(1,0)	(1,0)	(1,0)	(1,0)	(1,0)	(1,0)	(1,0)	(1,0)	(1,0)	(1,0)	(1,0)	(1,0)	
L1D -294>	(-16,2)	(2,2)	(26,59)	(334,1)	(8,14)	(18,4)	(287,2)	(41,1)	(1,0)	(1,0)	(1,0)	(1,0)	(1,0)	(1,0)	(1,0)	(1,0)	
L1D -293>	(-16,1)	(5,36)	(328,1)	(1,2)	(296,1)	(293,1)	(0,7)	(9,4)	(4,3)	(41,2)	(1,0)	(1,0)	(1,0)	(1,0)	(1,0)	(1,0)	
L1D -292>	(4,23)	(0,15)	(332,1)	(5,4)	(284,3)	(40,1)	(333,1)	(1,0)	(1,0)	(1,0)	(1,0)	(1,0)	(1,0)	(1,0)	(1,0)	(1,0)	
L1D -291>	(16,1)	(8,2)	(0,1)	(-38,1)	(5,1)	(331,1)	(9,4)	(1,3)	(4,1)	(284,1)	(1,0)	(1,0)	(1,0)	(1,0)	(1,0)	(1,0)	
L1D -290>	(0,1)	(290,1)	(-9,6)	(9,1)	(1,2)	(2,3)	(1,0)	(1,0)	(1,0)	(1,0)	(1,0)	(1,0)	(1,0)	(1,0)	(1,0)	(1,0)	
L1D -289>	(41,29)	(330,3)	(9,13)	(40,7)	(4,2)	(-16,4)	(3,4)	(1,1)	(291,2)	(-44,2)	(1,0)	(1,0)	(1,0)	(1,0)	(1,0)	(1,0)	
L1D -288>	(4,19)	(0,27)	(2,1)	(327,2)	(5,13)	(44,1)	(40,97)	(328,4)	(3,3)	(41,6)	(9,22)	(-36,3)	(288,2)	(290,2)	(-4,2)	(277,2)	
L1D -287>	(0,21)	(1,7)	(41,4)	(368,1)	(-10,14)	(277,2)	(327,23)	(44,4)	(45,3)	(328,25)	(9,7)	(3,3)	(2,5)	(-16,5)	(40,6)	(-44,3)	
L1D -286>	(44,5)	(1,1)	(0,8)	(40,2)	(41,1)	(2,3)	(4,3)	(5,1)	(3,1)	(1,0)	(1,0)	(1,0)	(1,0)	(1,0)	(1,0)	(1,0)	
L1D -285>	(5,1)	(1,9)	(40,3)	(41,11)	(0,3)	(1,0)	(1,0)	(1,0)	(1,0)	(1,0)	(1,0)	(1,0)	(1,0)	(1,0)	(1,0)	(1,0)	
L1D -284>	(0,22)	(9,68)	(-40,1)	(-97,0)	(4,1)	(1,0)	(41,27)	(5,95)	(324,2)	(-3,1)	(-4,4)	(16,1)	(40,11)	(-113,0)	(-98,0)	(-114,0)	
L1D -283>	(-1,19)	(0,71)	(40,93)	(-16,9)	(9,5)	(81,4)	(5,8)	(44,5)	(323,12)	(41,34)	(4,5)	(324,19)	(-5,7)	(1,5)	(-41,1)	(-4,3)	
L1D -282>	(8,94)	(-1,1)	(0,11)	(40,2)	(1,0)	(44,1)	(122,0)	(5,3)	(246,1)	(41,1)	(1,0)	(1,0)	(1,0)	(1,0)	(1,0)	(1,0)	
L1D -281>	(40,10)	(270,2)	(0,3)	(44,1)	(1,0)	(1,0)	(1,0)	(1,0)	(1,0)	(1,0)	(1,0)	(1,0)	(1,0)	(1,0)	(1,0)	(1,0)	
L1D -280>	(0,4)	(40,3)	(41,40)	(4,1)	(5,10)	(8,1)	(1,0)	(1,0)	(1,0)	(1,0)	(1,0)	(1,0)	(1,0)	(1,0)	(1,0)	(1,0)	
L1D -279>	(41,0)	(-4,1)	(0,9)	(-5,1)	(-9,2)	(125,0)	(40,111)	(-44,0)	(81,1)	(4,19)	(-40,0)	(5,6)	(8,8)	(9,7)	(1,0)	(1,0)	
L1D -278>	(242,4)	(5,3)	(125,3)	(8,13)	(-1,1)	(1,0)	(1,0)	(1,0)	(1,0)	(1,0)	(1,0)	(1,0)	(1,0)	(1,0)	(1,0)	(1,0)	
L1D -277>	(-44,3)	(1,0)	(1,0)	(1,0)	(1,0)	(1,0)	(1,0)	(1,0)	(1,0)	(1,0)	(1,0)	(1,0)	(1,0)	(1,0)	(1,0)	(1,0)	
L1D -276>	(41,19)	(26,6)	(1,0)	(1,0)	(1,0)	(1,0)	(1,0)	(1,0)	(1,0)	(1,0)	(1,0)	(1,0)	(1,0)	(1,0)	(1,0)	(1,0)	
L1D -275>	(1,34)	(3,2)	(0,10)	(-94,0)	(8,1)	(26,1)	(-4,8)	(-16,14)	(19,1)	(2,1)	(40,77)	(41,4)	(9,10)	(-9,0)	(4,23)	(5,1)	
L1D -274>	(1,21)	(0,40)	(-9,5)	(-5,17)	(-1,2)	(26,6)	(18,67)	(-16,3)	(4,11)	(40,4)	(2,35)	(246,2)	(-44,3)	(8,13)	(5,3)	(1,0)	
L1D -273>	(1,64)	(-1,5)	(-2,1)	(18,3)	(272,0)	(1,0)	(1,0)	(1,0)	(1,0)	(1,0)	(1,0)	(1,0)	(1,0)	(1,0)	(1,0)	(1,0)	
L1D -272>	(1,6)	(16,77)	(44,1)	(0,1)	(26,3)	(-2,3)	(5,1)	(1,0)	(1,0)	(1,0)	(1,0)	(1,0)	(1,0)	(1,0)	(1,0)	(1,0)	
L1D -271>	(1,3)	(8,1)	(2,3)	(274,1)	(3,1)	(1,0)	(1,0)	(1,0)	(1,0)	(1,0)	(1,0)	(1,0)	(1,0)	(1,0)	(1,0)	(1,0)	
L1D -270>	(44,1)	(0,7)	(4,2)	(5,1)	(1,0)	(1,0)	(1,0)	(1,0)	(1,0)	(1,0)	(1,0)	(1,0)	(1,0)	(1,0)	(1,0)	(1,0)	
L1D -269>	(81,2)	(9,1)	(16,1)	(4,1)	(5,1)	(1,0)	(1,0)	(1,0)	(1,0)	(1,0)	(1,0)	(1,0)	(1,0)	(1,0)	(1,0)	(1,0)	
L1D -268>	(8,27)	(26,38)	(2,1)	(1,0)	(1,0)	(1,0)	(1,0)	(1,0)	(1,0)	(1,0)	(1,0)	(1,0)	(1,0)	(1,0)	(1,0)	(1,0)	
L1D -267>	(-44,3)	(2,2)	(1,0)	(1,0)	(1,0)	(1,0)	(1,0)	(1,0)	(1,0)	(1,0)	(1,0)	(1,0)	(1,0)	(1,0)	(1,0)	(1,0)	
L1D -266>	(1,0)	(1,0)	(1,0)	(1,0)	(1,0)	(1,0)	(1,0)	(1,0)	(1,0)	(1,0)	(1,0)	(1,0)	(1,0)	(1,0)	(1,0)	(1,0)	
L1D -265>	(0,1)	(16,1)	(1,1)	(5,2)	(274,9)	(9,6)	(269,4)	(8,2)	(1,0)	(1,0)	(1,0)	(1,0)	(1,0)	(1,0)	(1,0)	(1,0)	
L1D -264>	(-9,10)	(273,5)	(269,5)	(9,6)	(5,2)	(6,1)	(1,0)	(1,0)	(1,0)	(1,0)	(1,0)	(1,0)	(1,0)	(1,0)	(1,0)	(1,0)	
L1D -263>	(44,1)	(1,1)	(5,1)	(6,2)	(1,0)	(1,0)	(1,0)	(1,0)	(1,0)	(1,0)	(1,0)	(1,0)	(1,0)	(1,0)	(1,0)	(1,0)	
L1D -262>	(1,1)	(3,1)	(246,2)	(1,0)	(1,0)	(1,0)	(1,0)	(1,0)	(1,0)	(1,0)	(1,0)	(1,0)	(1,0)	(1,0)	(1,0)	(1,0)	
L1D -261>	(5,38)	(0,4)	(276,2)	(1,0)	(1,0)	(1,0)	(1,0)	(1,0)	(1,0)	(1,0)	(1,0)	(1,0)	(1,0)	(1,0)	(1,0)	(1,0)	
L1D -260>	(44,1)	(4,5)	(9,3)	(2,2)	(1,0)	(1,0)	(1,0)	(1,0)	(1,0)	(1,0)	(1,0)	(1,0)	(1,0)	(1,0)	(1,0)	(1,0)	
L1D -259>	(274,1)	(1,0)	(1,0)	(1,0)	(1,0)	(1,0)	(1,0)	(1,0)	(1,0)	(1,0)	(1,0)	(1,0)	(1,0)	(1,0)	(1,0)	(1,0)	
L1D -258>	(1,2)	(9,77)	(16,1)	(2,2)	(-44,3)	(1,0)	(1,0)	(1,0)	(1,0)	(1,0)	(1,0)	(1,0)	(1,0)	(1,0)	(1,0)	(1,0)	
L1D -257>	(-16,16)	(1,0)	(1,0)	(1,0)	(1,0)	(1,0)	(1,0)	(1,0)	(1,0)	(1,0)	(1,0)	(1,0)	(1,0)	(1,0)	(1,0)	(1,0)	
L1D -256>	(8,107)	(0,2)	(-5,1)	(9,2)	(1,0)	(1,0)	(1,0)	(1,0)	(1,0)	(1,0)	(1,0)	(1,0)	(1,0)	(1,0)	(1,0)	(1,0)	
L1D -255>	(9,2)	(264,1)	(1,0)	(1,0)	(1,0)	(1,0)	(1,0)	(1,0)	(1,0)	(1,0)	(1,0)	(1,0)	(1,0)	(1,0)	(1,0)	(1,0)	
L1D -254>	(1,1)	(246,3)	(1,0)	(1,0)	(1,0)	(1,0)	(1,0)	(1,0)	(1,0)	(1,0)	(1,0)	(1,0)	(1,0)	(1,0)	(1,0)	(1,0)	
L1D -253>	(8,28)	(254,1)	(0,1)	(4,1)	(1,0)	(1,0)	(1,0)	(1,0)	(1,0)	(1,0)	(1,0)	(1,0)	(1,0)	(1,0)	(1,0)	(1,0)	
L1D -252>	(4,34)	(5,27)	(0,26)	(1,3)	(40,2)	(256,1)	(293,2)	(9,14)	(1,0)	(1,0)	(1,0)	(1,0)	(1,0)	(1,0)	(1,0)	(1,0)	
L1D -251>	(291,5)	(9,12)	(292,2)	(4,1)	(1,0)	(1,0)	(1,0)	(1,0)	(1,0)	(1,0)	(1,0)	(1,0)	(1,0)	(1,0)	(1,0)	(1,0)	
L1D -250>	(0,1)	(251,1)	(40,1)	(26,4)	(9,1)	(125,2)	(1,2)	(291,1)	(1,0)	(1,0)	(1,0)	(1,0)	(1,0)	(1,0)	(1,0)	(1,0)	
L1D -249>	(1,104)	(19,4)	(-16,37)	(8,4)	(41,39)	(5,42)	(3,23)	(250,2)	(26,2)	(-44,3)	(289,3)	(237,1)	(2,2)	(4,1)	(1,0)	(1,0)	
L1D -248>	(1,56)	(18,56)	(0,27)	(5,8)	(-1,1)	(-16,6)	(2,21)	(44,1)	(4,10)	(249,2)	(237,3)	(3,11)	(9,17)	(248,1)	(41,2)	(1,0)	
L1D -247>	(0,3)	(45,0)	(41,1)	(-1,2)	(4,2)	(1,83)	(288,0)	(287,9)	(40,1)	(-5,0)	(3,0)	(5,0)	(2,0)	(243,0)	(9,1)	(-44,0)	
L1D -246>	(-2,1)	(1,19)	(16,77)	(0,7)	(4,2)	(246,4)	(245,4)	(243,2)	(3,6)	(287,31)	(-3,3)	(125,1)	(8,2)	(53,1)	(5,1)	(43,1)	
L1D -245>	(1,9)	(0,9)	(9,2)	(4,13)	(3,1)	(40,5)	(2,3)	(41,2)	(1,0)	(1,0)	(1,0)	(1,0)	(1,0)	(1,0)	(1,0)	(1,0)	
L1D -244>	(0,28)	(244,2)	(245,1)	(1,27)	(41,8)	(40,74)	(4,36)	(-4,2)	(9,4)	(5,5)	(233,2)	(-9,1)	(2,1)	(-44,1)	(1,0)	(1,0)	
L1D -243>	(283,18)	(-125,2)	(202,0)	(0,24)	(-44,0)	(40,15)	(1,2)	(-4,3)	(284,11)	(5,23)	(4,102)	(9,2)	(41,26)	(81,1)	(-5,1)	(-1,2)	
L1D -242>	(-1,16)	(26,45)	(0,37)	(40,30)	(8,24)	(18,7)	(44,95)	(323,3)	(5,27)	(202,2)	(283,13)	(41,3)	(206,3)	(89,1)	(49,1)	(-126,1)	
L1D -241>	(1,2)	(41,7)	(230,1)	(-44,1)	(0,6)	(40,3)	(2,1)	(1,0)	(1,0)	(1,0)	(1,0)	(1,0)	(1,0)	(1,0)	(1,0)	(1,0)	
L1D -240>	(0,4)	(41,2)	(241,1)	(230,13)	(40,3)	(5,1)	(244,3)	(1,0)	(1,0)	(1,0)	(1,0)	(1,0)	(1,0)	(1,0)	(1,0)	(1,0)	
L1D -239>	(0,5)	(-4,2)	(279,1)	(5,14)	(-9,0)	(41,92)	(243,0)	(4,5)	(1,0)	(40,1)	(1,0)	(1,0)	(1,0)	(1,0)	(1,0)	(1,0)	
L1D -238>	(-5,16)	(40,6)	(0,10)	(-9,11)	(1,4)	(4,12)	(26,6)	(3,3)	(5,3)	(44,13)	(-1,1)	(279,1)	(278,1)	(1,0)	(1,0)	(1,0)	
L1D -237>	(2,3)	(-44,2)	(4,2)	(1,0)	(1,0)	(1,0)	(1,0)	(1,0)	(1,0)	(1,0)	(1,0)	(1,0)	(1,0)	(1,0)	(1,0)	(1,0)	
L1D -236>	(1,0)	(1,0)	(1,0)	(1,0)	(1,0)	(1,0)	(1,0)	(1,0)	(1,0)	(1,0)	(1,0)	(1,0)	(1,0)	(1,0)	(1,0)	(1,0)	
L1D -235>	(16,2)	(41,8)	(5,4)	(1,0)	(1,0)	(1,0)	(1,0)	(1,0)	(1,0)	(1,0)	(1,0)	(1,0)	(1,0)	(1,0)	(1,0)	(1,0)	
L1D -234>	(-5,21)	(-9,14)	(0,34)	(-4,24)	(41,1)	(4,20)	(5,8)	(9,8)	(274,1)	(40,1)	(31,1)	(206,1)	(1,0)	(1,0)	(1,0)	(1,0)	
L1D -233>	(0,1)	(202,4)	(44,2)	(1,0)	(1,0)	(1,0)	(1,0)	(1,0)	(1,0)	(1,0)	(1,0)	(1,0)	(1,0)	(1,0)	(1,0)	(1,0)	
L1D -232>	(9,62)	(125,1)	(0,1)	(204,1)	(1,0)	(1,0)	(1,0)	(1,0)	(1,0)	(1,0)	(1,0)	(1,0)	(1,0)	(1,0)	(1,0)	(1,0)	
L1D -231>	(-16,8)	(125,3)	(5,1)	(1,0)	(1,0)	(1,0)	(1,0)	(1,0)	(1,0)	(1,0)	(1,0)	(1,0)	(1,0)	(1,0)	(1,0)	(1,0)	
L1D -230>	(8,71)	(-8,1)	(3,1)	(41,69)	(0,2)	(5,6)	(-4,1)	(4,0)	(1,0)	(1,0)	(1,0)	(1,0)	(1,0)	(1,0)	(1,0)	(1,0)	
L1D -229>	(206,4)	(0,8)	(5,2)	(125,3)	(-5,3)	(270,1)	(1,0)	(1,0)	(1,0)	(1,0)	(1,0)	(1,0)	(1,0)	(1,0)	(1,0)	(1,0)	
L1D -228>	(4,1)	(9,1)	(1,0)	(1,0)	(1,0)	(1,0)	(1,0)	(1,0)	(1,0)	(1,0)	(1,0)	(1,0)	(1,0)	(1,0)	(1,0)	(1,0)	
L1D -227>	(8,64)	(-44,3)	(1,0)	(1,0)	(1,0)	(1,0)	(1,0)	(1,0)	(1,0)	(1,0)	(1,0)	(1,0)	(1,0)	(1,0)	(1,0)	(1,0)	
L1D -226>	(1,1)	(206,2)	(1,0)	(1,0)	(1,0)	(1,0)	(1,0)	(1,0)	(1,0)	(1,0)	(1,0)	(1,0)	(1,0)	(1,0)	(1,0)	(1,0)	
L1D -225>	(1,1)	(221,15)	(0,4)	(-44,3)	(10,1)	(205,1)	(217,1)	(1,0)	(1,0)	(1,0)	(1,0)	(1,0)	(1,0)	(1,0)	(1,0)	(1,0)	
L1D -224>	(-4,6)	(233,15)	(4,1)	(0,4)	(5,2)	(9,17)	(228,3)	(26,6)	(6,1)	(229,1)	(1,0)	(1,0)	(1,0)	(1,0)	(1,0)	(1,0)	
L1D -223>	(-16,32)	(1,115)	(8,7)	(26,2)	(19,1)	(44,1)	(3,5)	(2,1)	(1,0)	(1,0)	(1,0)	(1,0)	(1,0)	(1,0)	(1,0)	(1,0)	
L1D -222>	(2,19)	(1,54)	(-1,1)	(0,13)	(18,32)	(-16,4)	(1,0)	(1,0)	(1,0)	(1,0)	(1,0)	(1,0)	(1,0)	(1,0)	(1,0)	(1,0)	
L1D -221>	(-1,3)	(1,120)	(217,0)	(1,0)	(1,0)	(1,0)	(1,0)	(1,0)	(1,0)	(1,0)	(1,0)	(1,0)	(1,0)	(1,0)	(1,0)	(1,0)	
L1D -220>	(16,70)	(1,14)	(125,2)	(0,5)	(-3,2)	(2,2)	(3,1)	(1,0)	(1,0)	(1,0)	(1,0)	(1,0)	(1,0)	(1,0)	(1,0)	(1,0)	
L1D -219>	(1,11)	(8,53)	(2,11)	(18,17)	(218,1)	(125,2)	(1,0)	(1,0)	(1,0)	(1,0)	(1,0)	(1,0)	(1,0)	(1,0)	(1,0)	(1,0)	
L1D -218>	(1,15)	(-1,6)	(9,1)	(2,2)	(-44,3)	(5,1)	(6,1)	(1,0)	(1,0)	(1,0)	(1,0)	(1,0)	(1,0)	(1,0)	(1,0)	(1,0)	
L1D -217>	(82,37)	(16,13)	(-2,1)	(1,0)	(1,0)	(1,0)	(1,0)	(1,0)	(1,0)	(1,0)	(1,0)	(1,0)	(1,0)	(1,0)	(1,0)	(1,0)	
L1D -216>	(26,33)	(2,1)	(0,7)	(18,6)	(92,7)	(257,2)	(4,3)	(5,3)	(220,1)	(10,8)	(256,1)	(1,2)	(1,0)	(1,0)	(1,0)	(1,0)	
L1D -215>	(0,5)	(92,8)	(-10,3)	(-44,3)	(4,1)	(1,0)	(1,0)	(1,0)	(1,0)	(1,0)	(1,0)	(1,0)	(1,0)	(1,0)	(1,0)	(1,0)	
L1D -214>	(210,1)	(44,2)	(92,7)	(218,1)	(1,0)	(1,0)	(1,0)	(1,0)	(1,0)	(1,0)	(1,0)	(1,0)	(1,0)	(1,0)	(1,0)	(1,0)	
L1D -213>	(16,1)	(92,6)	(206,2)	(1,0)	(1,0)	(1,0)	(1,0)	(1,0)	(1,0)	(1,0)	(1,0)	(1,0)	(1,0)	(1,0)	(1,0)	(1,0)	
L1D -212>	(0,22)	(5,22)	(1,18)	(215,1)	(9,12)	(3,4)	(26,10)	(92,3)	(4,2)	(40,5)	(-9,3)	(1,0)	(1,0)	(1,0)	(1,0)	(1,0)	
L1D -211>	(0,21)	(4,20)	(9,7)	(44,1)	(1,1)	(40,5)	(252,2)	(2,13)	(251,2)	(1,0)	(1,0)	(1,0)	(1,0)	(1,0)	(1,0)	(1,0)	
L1D -210>	(1,3)	(0,1)	(41,1)	(-19,4)	(-8,6)	(-44,3)	(8,1)	(5,1)	(206,1)	(-22,2)	(251,1)	(1,0)	(1,0)	(1,0)	(1,0)	(1,0)	
L1D -209>	(16,3)	(206,3)	(1,5)	(202,1)	(-9,1)	(1,0)	(1,0)	(1,0)	(1,0)	(1,0)	(1,0)	(1,0)	(1,0)	(1,0)	(1,0)	(1,0)	
L1D -208>	(1,4)	(5,22)	(41,15)	(-10,2)	(40,3)	(249,4)	(3,5)	(2,3)	(9,2)	(-3,1)	(4,2)	(210,1)	(208,1)	(1,0)	(1,0)	(1,0)	
L1D -207>	(0,37)	(4,8)	(40,18)	(5,14)	(41,10)	(9,34)	(21,3)	(-1,1)	(1,6)	(247,1)	(-5,6)	(248,3)	(2,1)	(3,4)	(209,1)	(216,1)	
L1D -206>	(0,22)	(40,11)	(246,71)	(5,3)	(4,2)	(3,34)	(201,3)	(247,59)	(45,2)	(9,6)	(1,11)	(-196,1)	(41,4)	(8,2)	(44,2)	(-9,1)	
L1D -205>	(0,13)	(-16,11)	(1,6)	(3,3)	(41,3)	(201,1)	(4,1)	(40,1)	(1,0)	(1,0)	(1,0)	(1,0)	(1,0)	(1,0)	(1,0)	(1,0)	
L1D -204>	(205,0)	(204,1)	(0,6)	(8,72)	(1,3)	(41,5)	(2,5)	(9,2)	(5,4)	(194,0)	(3,1)	(1,0)	(1,0)	(1,0)	(1,0)	(1,0)	
L1D -203>	(205,1)	(0,42)	(1,3)	(41,103)	(5,49)	(40,122)	(9,120)	(2,3)	(4,8)	(-4,11)	(-3,8)	(-40,3)	(199,4)	(209,6)	(243,5)	(244,5)	
L1D -202>	(0,45)	(-1,2)	(4,64)	(1,1)	(283,2)	(9,30)	(41,10)	(-5,1)	(199,1)	(-4,7)	(243,8)	(161,1)	(242,5)	(40,22)	(162,1)	(-2,0)	
L1D -201>	(-1,2)	(0,14)	(8,41)	(40,9)	(1,1)	(202,0)	(9,2)	(41,4)	(44,98)	(165,3)	(194,0)	(-3,0)	(5,1)	(1,0)	(1,0)	(1,0)	
L1D -200>	(-1,2)	(0,12)	(5,1)	(40,24)	(198,1)	(9,2)	(41,1)	(1,0)	(1,0)	(1,0)	(1,0)	(1,0)	(1,0)	(1,0)	(1,0)	(1,0)	
L1D -199>	(0,9)	(44,1)	(5,13)	(41,62)	(240,1)	(2,122)	(-9,1)	(202,3)	(-3,14)	(-8,5)	(9,18)	(194,1)	(193,2)	(195,1)	(-2,1)	(1,0)	
L1D -198>	(0,48)	(40,32)	(-4,15)	(-5,5)	(-1,1)	(-44,3)	(-9,13)	(202,13)	(5,9)	(4,19)	(1,27)	(41,3)	(45,9)	(94,1)	(95,1)	(238,1)	
L1D -197>	(-16,27)	(8,8)	(0,1)	(1,1)	(238,2)	(5,3)	(-44,3)	(-10,1)	(-2,1)	(198,1)	(40,1)	(1,0)	(1,0)	(1,0)	(1,0)	(1,0)	
L1D -196>	(-16,2)	(0,1)	(197,1)	(1,0)	(1,0)	(1,0)	(1,0)	(1,0)	(1,0)	(1,0)	(1,0)	(1,0)	(1,0)	(1,0)	(1,0)	(1,0)	
L1D -195>	(-44,1)	(1,0)	(1,0)	(1,0)	(1,0)	(1,0)	(1,0)	(1,0)	(1,0)	(1,0)	(1,0)	(1,0)	(1,0)	(1,0)	(1,0)	(1,0)	
L1D -194>	(-9,7)	(0,20)	(-4,9)	(41,81)	(195,1)	(90,2)	(5,10)	(-16,10)	(-44,1)	(40,1)	(95,1)	(1,1)	(1,0)	(1,0)	(1,0)	(1,0)	
L1D -193>	(8,109)	(-9,11)	(0,27)	(-5,20)	(5,3)	(13,14)	(4,1)	(40,3)	(-49,1)	(144,2)	(-16,1)	(90,1)	(165,1)	(41,1)	(9,1)	(1,0)	
L1D -192>	(44,1)	(-6,1)	(166,1)	(1,0)	(1,0)	(1,0)	(1,0)	(1,0)	(1,0)	(1,0)	(1,0)	(1,0)	(1,0)	(1,0)	(1,0)	(1,0)	
L1D -191>	(0,2)	(1,0)	(1,0)	(1,0)	(1,0)	(1,0)	(1,0)	(1,0)	(1,0)	(1,0)	(1,0)	(1,0)	(1,0)	(1,0)	(1,0)	(1,0)	
L1D -190>	(1,2)	(44,1)	(8,2)	(3,2)	(140,1)	(15,1)	(7,1)	(-8,3)	(5,1)	(1,0)	(1,0)	(1,0)	(1,0)	(1,0)	(1,0)	(1,0)	
L1D -189>	(229,1)	(-5,4)	(45,23)	(0,4)	(5,3)	(13,3)	(40,1)	(161,1)	(4,2)	(15,2)	(-7,3)	(3,1)	(7,2)	(19,1)	(44,1)	(135,1)	
L1D -188>	(192,2)	(-22,4)	(-8,9)	(16,2)	(7,3)	(0,2)	(-7,1)	(15,1)	(1,0)	(1,0)	(1,0)	(1,0)	(1,0)	(1,0)	(1,0)	(1,0)	
L1D -187>	(0,1)	(13,14)	(3,1)	(-9,1)	(15,2)	(17,1)	(1,0)	(1,0)	(1,0)	(1,0)	(1,0)	(1,0)	(1,0)	(1,0)	(1,0)	(1,0)	
L1D -186>	(-24,12)	(7,3)	(0,1)	(2,1)	(3,2)	(15,2)	(16,2)	(12,2)	(13,1)	(1,0)	(1,0)	(1,0)	(1,0)	(1,0)	(1,0)	(1,0)	
L1D -185>	(1,2)	(154,1)	(90,54)	(-4,4)	(45,22)	(0,4)	(165,3)	(12,2)	(3,1)	(15,1)	(172,1)	(18,1)	(41,2)	(1,0)	(1,0)	(1,0)	
L1D -184>	(90,30)	(135,17)	(45,20)	(6,1)	(9,5)	(5,1)	(15,2)	(12,2)	(-3,1)	(1,0)	(1,0)	(1,0)	(1,0)	(1,0)	(1,0)	(1,0)	
L1D -183>	(44,1)	(192,6)	(9,10)	(188,3)	(11,1)	(170,1)	(16,3)	(0,1)	(7,2)	(3,2)	(1,0)	(1,0)	(1,0)	(1,0)	(1,0)	(1,0)	
L1D -182>	(1,1)	(2,1)	(7,3)	(3,1)	(-7,1)	(9,3)	(11,3)	(-12,1)	(6,1)	(1,0)	(1,0)	(1,0)	(1,0)	(1,0)	(1,0)	(1,0)	
L1D -181>	(1,1)	(15,1)	(9,2)	(171,1)	(176,1)	(16,2)	(173,1)	(1,0)	(1,0)	(1,0)	(1,0)	(1,0)	(1,0)	(1,0)	(1,0)	(1,0)	
L1D -180>	(9,77)	(44,1)	(13,9)	(-3,2)	(0,4)	(40,1)	(5,5)	(15,2)	(-9,1)	(17,1)	(11,1)	(171,1)	(158,1)	(-10,1)	(1,0)	(1,0)	
L1D -179>	(124,1)	(128,1)	(5,1)	(163,1)	(9,4)	(13,1)	(147,1)	(11,1)	(175,1)	(188,4)	(184,1)	(15,2)	(1,0)	(1,0)	(1,0)	(1,0)	
L1D -178>	(186,8)	(9,2)	(-44,3)	(5,2)	(174,1)	(16,3)	(15,1)	(0,2)	(1,0)	(1,0)	(1,0)	(1,0)	(1,0)	(1,0)	(1,0)	(1,0)	
L1D -177>	(13,1)	(7,2)	(14,1)	(187,1)	(11,1)	(172,1)	(0,1)	(4,1)	(155,1)	(1,0)	(1,0)	(1,0)	(1,0)	(1,0)	(1,0)	(1,0)	
L1D -176>	(176,82)	(14,0)	(172,0)	(171,0)	(6,0)	(-8,0)	(144,0)	(7,0)	(111,0)	(0,0)	(1,0)	(1,0)	(1,0)	(1,0)	(1,0)	(1,0)	
L1D -175>	(0,13)	(184,1)	(216,2)	(4,1)	(13,1)	(-7,1)	(175,1)	(171,1)	(6,1)	(172,2)	(-1,1)	(170,1)	(139,1)	(157,1)	(16,1)	(-9,1)	
L1D -174>	(125,2)	(13,30)	(156,2)	(96,2)	(152,1)	(-8,2)	(170,2)	(179,1)	(5,1)	(151,1)	(-11,1)	(-1,3)	(178,2)	(4,1)	(169,1)	(15,1)	
L1D -173>	(165,1)	(125,2)	(182,1)	(141,1)	(154,2)	(136,1)	(-1,1)	(169,1)	(15,9)	(-9,1)	(-12,1)	(16,2)	(179,2)	(155,1)	(13,1)	(3,1)	
L1D -172>	(0,2)	(5,5)	(9,18)	(7,1)	(-1,1)	(145,1)	(154,1)	(136,1)	(137,1)	(-11,1)	(155,1)	(-9,1)	(15,7)	(-13,1)	(16,1)	(6,1)	
L1D -171>	(1,97)	(5,38)	(0,39)	(4,14)	(41,2)	(9,20)	(40,3)	(172,1)	(44,1)	(211,1)	(-9,1)	(15,5)	(-18,1)	(-8,1)	(17,1)	(-14,3)	
L1D -170>	(1,51)	(162,4)	(-15,4)	(171,2)	(9,9)	(4,3)	(211,2)	(6,1)	(16,2)	(170,1)	(15,1)	(-17,2)	(14,1)	(-4,1)	(-8,1)	(-14,4)	
L1D -169>	(1,77)	(147,0)	(157,0)	(13,0)	(172,0)	(177,0)	(174,0)	(-15,0)	(-14,0)	(-10,0)	(169,0)	(-11,0)	(16,0)	(156,0)	(-17,0)	(-13,0)	
L1D -168>	(1,6)	(168,4)	(9,33)	(4,1)	(5,1)	(2,3)	(173,2)	(-15,2)	(-14,4)	(-4,1)	(172,1)	(187,2)	(145,1)	(141,1)	(-10,2)	(-18,1)	
L1D -167>	(0,18)	(1,7)	(5,19)	(40,10)	(168,1)	(20,109)	(9,33)	(41,25)	(-14,3)	(11,1)	(125,2)	(207,3)	(-3,1)	(169,1)	(172,1)	(-15,1)	
L1D -166>	(40,7)	(0,36)	(1,21)	(41,14)	(9,14)	(4,9)	(11,2)	(165,4)	(206,63)	(-14,6)	(82,1)	(-44,3)	(207,6)	(3,5)	(2,2)	(5,5)	
L1D -165>	(41,33)	(0,10)	(40,5)	(4,5)	(81,26)	(11,2)	(206,81)	(8,2)	(9,3)	(-15,3)	(142,2)	(3,4)	(147,2)	(82,1)	(13,1)	(-17,2)	
L1D -164>	(41,25)	(1,3)	(4,2)	(5,6)	(-24,8)	(0,10)	(40,7)	(3,1)	(169,2)	(-14,2)	(145,1)	(-15,6)	(-10,4)	(147,1)	(13,1)	(12,1)	
L1D -163>	(0,3)	(1,1)	(40,15)	(4,2)	(5,20)	(41,106)	(167,0)	(-15,0)	(149,0)	(106,0)	(136,0)	(163,0)	(169,0)	(-1,0)	(10,0)	(168,0)	
L1D -162>	(202,6)	(41,12)	(40,14)	(203,2)	(9,26)	(4,25)	(5,64)	(-2,1)	(-8,0)	(-4,13)	(122,0)	(-9,0)	(-5,5)	(0,20)	(1,1)	(-1,1)	
L1D -161>	(-1,2)	(0,12)	(-15,1)	(40,5)	(44,39)	(9,78)	(20,28)	(-13,1)	(85,8)	(48,1)	(5,4)	(242,1)	(170,1)	(202,8)	(-17,0)	(41,2)	
L1D -160>	(-13,2)	(41,1)	(5,6)	(4,6)	(201,1)	(-1,6)	(0,6)	(-8,1)	(-17,1)	(173,1)	(146,1)	(-12,2)	(137,2)	(10,1)	(165,1)	(161,1)	
L1D -159>	(0,12)	(-15,2)	(41,29)	(11,3)	(5,11)	(154,2)	(2,6)	(13,17)	(40,4)	(158,4)	(7,1)	(168,1)	(145,1)	(-12,2)	(136,1)	(163,1)	
L1D -158>	(0,23)	(-4,34)	(-15,3)	(40,100)	(41,57)	(159,5)	(1,64)	(4,48)	(162,56)	(153,4)	(9,16)	(146,3)	(149,18)	(5,17)	(-9,7)	(54,1)	
L1D -157>	(40,3)	(0,17)	(-14,3)	(4,19)	(-44,7)	(116,5)	(16,4)	(-5,6)	(-9,5)	(5,1)	(-10,5)	(162,3)	(44,2)	(-17,2)	(-15,2)	(-13,5)	
L1D -156>	(-9,1)	(142,4)	(-8,1)	(13,2)	(16,4)	(-18,2)	(11,2)	(-13,4)	(161,1)	(-15,6)	(165,4)	(-10,1)	(-17,1)	(-1,2)	(1,0)	(1,0)	
L1D -155>	(-3,3)	(-44,3)	(-18,1)	(-5,1)	(145,2)	(141,1)	(161,1)	(-15,8)	(160,2)	(-9,1)	(-1,2)	(177,1)	(-12,1)	(155,1)	(-13,3)	(164,1)	
L1D -154>	(41,82)	(11,2)	(5,17)	(-15,4)	(-10,3)	(-1,3)	(13,2)	(140,2)	(16,1)	(-13,2)	(-12,1)	(150,1)	(155,2)	(163,1)	(-11,1)	(15,1)	
L1D -153>	(-9,22)	(-5,16)	(0,35)	(129,3)	(-4,10)	(9,32)	(1,4)	(50,8)	(144,9)	(49,14)	(45,1)	(-17,2)	(-15,5)	(125,3)	(157,6)	(193,5)	
L1D -152>	(-15,4)	(0,2)	(4,2)	(-12,2)	(1,11)	(-2,3)	(125,4)	(130,6)	(-3,3)	(41,1)	(121,1)	(-17,6)	(11,1)	(16,1)	(137,1)	(152,2)	
L1D -151>	(9,2)	(128,10)	(129,5)	(114,2)	(1,2)	(123,1)	(-3,4)	(6,13)	(120,1)	(7,1)	(13,1)	(16,2)	(-8,1)	(-12,6)	(-10,1)	(165,1)	
L1D -150>	(2,2)	(1,16)	(-10,2)	(126,9)	(-3,9)	(128,4)	(-2,3)	(-1,2)	(6,31)	(122,2)	(114,1)	(7,1)	(140,1)	(150,2)	(131,1)	(136,2)	
L1D -149>	(95,2)	(126,3)	(127,21)	(-3,14)	(121,5)	(-15,3)	(6,31)	(3,6)	(148,31)	(150,3)	(0,11)	(4,5)	(-10,3)	(149,2)	(45,7)	(153,2)	
L1D -148>	(-15,3)	(6,37)	(149,36)	(121,3)	(0,5)	(7,3)	(5,1)	(45,3)	(3,3)	(-17,3)	(15,1)	(-3,1)	(-12,2)	(-13,1)	(-8,1)	(16,1)	
L1D -147>	(5,11)	(151,2)	(124,4)	(6,92)	(3,11)	(148,3)	(-15,4)	(-44,3)	(-10,7)	(1,1)	(137,1)	(7,3)	(129,1)	(161,1)	(-17,5)	(16,2)	
L1D -146>	(1,5)	(13,32)	(164,2)	(123,3)	(147,5)	(-10,6)	(146,2)	(-15,6)	(-13,3)	(110,1)	(150,3)	(6,27)	(3,4)	(151,6)	(154,3)	(-12,3)	
L1D -145>	(1,5)	(-10,8)	(-15,3)	(149,10)	(6,40)	(125,2)	(-44,2)	(13,3)	(-13,3)	(-17,2)	(10,2)	(7,1)	(136,1)	(146,2)	(145,1)	(144,6)	
L1D -144>	(-9,5)	(5,4)	(-17,3)	(6,71)	(149,9)	(-4,1)	(145,8)	(45,34)	(94,11)	(0,5)	(41,7)	(95,9)	(90,112)	(135,22)	(144,3)	(140,5)	
L1D -143>	(125,17)	(9,8)	(3,9)	(6,118)	(147,14)	(-9,19)	(144,4)	(121,15)	(130,13)	(143,8)	(123,1)	(142,5)	(120,3)	(111,4)	(-17,5)	(5,5)	
L1D -142>	(110,4)	(114,3)	(129,13)	(6,69)	(3,7)	(148,12)	(118,4)	(123,9)	(141,8)	(143,6)	(125,14)	(120,8)	(142,1)	(2,4)	(124,3)	(128,2)	
L1D -141>	(1,13)	(-9,22)	(119,5)	(128,7)	(141,4)	(123,4)	(127,1)	(118,3)	(2,2)	(-8,3)	(114,4)	(142,4)	(5,3)	(132,4)	(146,4)	(6,9)	
L1D -140>	(-15,4)	(117,5)	(-4,1)	(126,5)	(145,6)	(112,2)	(144,5)	(90,23)	(0,4)	(121,6)	(130,2)	(1,2)	(-3,1)	(5,1)	(140,4)	(139,3)	
L1D -139>	(4,15)	(-15,8)	(142,10)	(112,6)	(40,1)	(117,2)	(120,3)	(140,2)	(-3,8)	(-17,5)	(144,4)	(90,35)	(-10,50)	(5,4)	(125,3)	(0,4)	
L1D -138>	(124,2)	(6,2)	(-15,7)	(138,4)	(143,21)	(-3,16)	(139,7)	(134,2)	(111,4)	(110,1)	(-2,3)	(116,1)	(121,4)	(120,2)	(-44,3)	(123,1)	
L1D -137>	(1,1)	(137,10)	(136,9)	(118,3)	(123,8)	(128,3)	(109,6)	(129,2)	(127,5)	(-13,4)	(6,4)	(-15,6)	(138,3)	(119,3)	(-17,2)	(132,3)	
L1D -136>	(144,6)	(-3,21)	(119,6)	(137,9)	(112,2)	(135,3)	(122,4)	(123,2)	(131,3)	(124,6)	(127,21)	(-8,2)	(126,10)	(-15,2)	(140,1)	(118,2)	
L1D -135>	(1,3)	(0,8)	(121,9)	(-1,3)	(-3,7)	(131,6)	(5,5)	(175,1)	(-44,3)	(126,9)	(130,6)	(135,3)	(-15,2)	(122,3)	(136,5)	(127,4)	
L1D -134>	(-17,4)	(1,3)	(-15,4)	(-10,3)	(143,3)	(45,1)	(125,11)	(120,29)	(124,14)	(129,23)	(133,4)	(135,5)	(5,1)	(-3,1)	(3,1)	(139,5)	
L1D -133>	(-15,4)	(114,4)	(120,7)	(132,10)	(119,20)	(123,21)	(128,27)	(-3,12)	(121,15)	(125,14)	(130,13)	(134,4)	(118,6)	(133,2)	(-1,3)	(5,1)	
L1D -132>	(-3,18)	(-15,6)	(142,5)	(133,12)	(119,20)	(124,24)	(128,16)	(118,18)	(123,18)	(127,22)	(132,13)	(109,2)	(114,3)	(-10,2)	(-17,2)	(138,1)	
L1D -131>	(5,24)	(0,21)	(9,32)	(4,6)	(117,7)	(130,4)	(-10,4)	(112,2)	(-15,4)	(140,2)	(171,1)	(135,1)	(-6,1)	(141,1)	(150,1)	(145,1)	
L1D -130>	(4,20)	(9,15)	(0,18)	(5,7)	(-17,4)	(1,4)	(111,8)	(134,2)	(-6,3)	(129,2)	(-3,8)	(170,1)	(-1,3)	(122,1)	(171,5)	(125,3)	
L1D -129>	(2,2)	(138,2)	(1,6)	(144,1)	(141,2)	(148,2)	(-3,13)	(134,3)	(143,3)	(130,2)	(-6,2)	(4,6)	(9,2)	(129,4)	(120,1)	(146,1)	
L1D -128>	(114,7)	(129,3)	(146,6)	(137,12)	(138,2)	(-6,3)	(5,5)	(-1,6)	(4,1)	(1,1)	(0,2)	(-3,4)	(142,6)	(132,2)	(118,2)	(-2,1)	
L1D -127>	(127,3)	(128,3)	(41,71)	(1,3)	(9,32)	(5,30)	(-3,5)	(142,3)	(140,1)	(4,5)	(116,3)	(132,3)	(141,2)	(117,1)	(112,1)	(3,1)	
L1D -126>	(166,4)	(4,16)	(5,14)	(0,47)	(1,5)	(9,39)	(41,9)	(3,1)	(40,12)	(-4,2)	(143,2)	(149,2)	(108,4)	(112,3)	(126,4)	(117,4)	
L1D -125>	(41,22)	(82,3)	(42,7)	(1,6)	(166,75)	(165,94)	(40,7)	(5,5)	(3,44)	(4,8)	(139,7)	(148,2)	(-10,10)	(83,16)	(115,4)	(0,5)	
L1D -124>	(41,70)	(0,4)	(4,1)	(82,14)	(40,2)	(5,2)	(138,1)	(166,0)	(119,1)	(-1,1)	(142,1)	(146,1)	(133,0)	(141,1)	(-3,2)	(125,0)	
L1D -123>	(26,67)	(123,13)	(1,26)	(41,96)	(3,4)	(0,24)	(2,5)	(5,18)	(-3,13)	(136,12)	(132,5)	(109,7)	(81,4)	(114,2)	(82,1)	(18,7)	
L1D -122>	(-3,4)	(3,6)	(0,37)	(-8,2)	(1,11)	(41,31)	(4,22)	(40,47)	(5,67)	(9,120)	(162,6)	(-9,2)	(2,48)	(18,1)	(-4,3)	(26,14)	
L1D -121>	(40,28)	(-1,42)	(0,27)	(1,5)	(18,11)	(4,4)	(9,36)	(2,14)	(-4,70)	(5,18)	(-3,6)	(-2,2)	(162,12)	(-81,2)	(161,3)	(41,6)	
L1D -120>	(16,40)	(0,14)	(-2,2)	(-1,21)	(4,11)	(5,6)	(1,7)	(40,20)	(41,7)	(160,3)	(132,6)	(-3,12)	(130,3)	(113,1)	(120,9)	(134,5)	
L1D -119>	(1,3)	(40,1)	(41,5)	(117,2)	(-3,13)	(137,8)	(147,2)	(133,2)	(141,6)	(132,3)	(124,4)	(114,2)	(128,2)	(-6,2)	(16,12)	(0,7)	
L1D -118>	(41,19)	(122,60)	(5,17)	(0,8)	(117,2)	(-8,5)	(-3,7)	(119,15)	(137,5)	(113,5)	(136,4)	(118,4)	(127,3)	(131,3)	(40,1)	(2,23)	
L1D -117>	(0,35)	(-4,20)	(-5,23)	(40,49)	(9,24)	(-1,4)	(121,38)	(41,9)	(145,2)	(143,3)	(-3,3)	(117,8)	(5,5)	(-44,24)	(4,25)	(-9,1)	
L1D -116>	(0,1)	(4,4)	(157,5)	(130,4)	(143,2)	(116,2)	(5,3)	(126,3)	(-1,3)	(139,3)	(148,4)	(156,2)	(134,2)	(8,1)	(1,0)	(1,0)	
L1D -115>	(4,6)	(-3,5)	(116,10)	(146,1)	(115,2)	(123,2)	(-1,12)	(-44,3)	(132,1)	(141,1)	(1,0)	(1,0)	(1,0)	(1,0)	(1,0)	(1,0)	
L1D -114>	(-83,9)	(-77,1)	(-92,20)	(-82,19)	(-79,0)	(-78,0)	(-9,0)	(4,1)	(114,2)	(126,0)	(132,0)	(137,0)	(149,0)	(-1,0)	(-81,106)	(124,0)	
L1D -113>	(-9,19)	(0,19)	(-4,11)	(4,8)	(9,20)	(122,24)	(54,1)	(113,1)	(-1,2)	(131,2)	(63,5)	(41,26)	(5,8)	(13,1)	(40,2)	(140,1)	
L1D -112>	(-5,15)	(0,12)	(4,8)	(125,2)	(5,9)	(-3,2)	(-1,7)	(138,6)	(63,3)	(54,2)	(-9,15)	(84,3)	(58,2)	(72,2)	(-12,1)	(113,3)	
L1D -111>	(119,8)	(-10,2)	(5,6)	(0,3)	(124,3)	(135,1)	(143,5)	(112,5)	(-3,2)	(111,14)	(137,2)	(-1,3)	(125,3)	(146,1)	(126,2)	(-9,1)	
L1D -110>	(0,1)	(44,1)	(5,8)	(124,3)	(110,2)	(142,2)	(129,3)	(133,4)	(137,2)	(-1,5)	(123,1)	(128,2)	(146,1)	(1,0)	(1,0)	(1,0)	
L1D -109>	(1,3)	(5,11)	(110,14)	(3,3)	(4,3)	(41,1)	(-3,1)	(1,0)	(1,0)	(1,0)	(1,0)	(1,0)	(1,0)	(1,0)	(1,0)	(1,0)	
L1D -108>	(5,4)	(4,1)	(108,7)	(59,4)	(-5,4)	(0,4)	(-4,1)	(9,3)	(1,0)	(1,0)	(1,0)	(1,0)	(1,0)	(1,0)	(1,0)	(1,0)	
L1D -107>	(71,1)	(5,1)	(9,9)	(0,1)	(1,8)	(4,1)	(-44,3)	(49,1)	(111,1)	(112,1)	(1,0)	(1,0)	(1,0)	(1,0)	(1,0)	(1,0)	
L1D -106>	(5,1)	(9,9)	(107,16)	(1,0)	(1,0)	(1,0)	(1,0)	(1,0)	(1,0)	(1,0)	(1,0)	(1,0)	(1,0)	(1,0)	(1,0)	(1,0)	
L1D -105>	(9,4)	(105,6)	(-16,84)	(-44,1)	(-3,2)	(1,0)	(1,0)	(1,0)	(1,0)	(1,0)	(1,0)	(1,0)	(1,0)	(1,0)	(1,0)	(1,0)	
L1D -104>	(4,2)	(1,2)	(9,13)	(5,3)	(41,3)	(54,17)	(99,2)	(45,21)	(0,3)	(50,17)	(-16,4)	(95,12)	(84,3)	(6,1)	(144,3)	(-49,1)	
L1D -103>	(1,39)	(45,1)	(9,9)	(15,54)	(54,11)	(8,91)	(49,31)	(0,4)	(144,5)	(94,18)	(-5,4)	(5,3)	(-8,6)	(153,1)	(112,1)	(107,1)	
L1D -102>	(1,74)	(4,0)	(5,0)	(111,0)	(9,2)	(1,0)	(1,0)	(1,0)	(1,0)	(1,0)	(1,0)	(1,0)	(1,0)	(1,0)	(1,0)	(1,0)	
L1D -101>	(1,86)	(5,1)	(9,3)	(2,0)	(1,0)	(1,0)	(1,0)	(1,0)	(1,0)	(1,0)	(1,0)	(1,0)	(1,0)	(1,0)	(1,0)	(1,0)	
L1D -100>	(1,12)	(44,1)	(9,6)	(-4,1)	(11,1)	(1,0)	(1,0)	(1,0)	(1,0)	(1,0)	(1,0)	(1,0)	(1,0)	(1,0)	(1,0)	(1,0)	
L1D -99>	(4,2)	(1,1)	(41,3)	(11,14)	(-4,21)	(50,2)	(-54,5)	(49,4)	(0,14)	(144,14)	(-5,4)	(9,4)	(90,2)	(1,0)	(1,0)	(1,0)	
L1D -98>	(103,2)	(9,12)	(82,5)	(277,2)	(0,1)	(1,0)	(1,0)	(1,0)	(1,0)	(1,0)	(1,0)	(1,0)	(1,0)	(1,0)	(1,0)	(1,0)	
L1D -97>	(9,8)	(-16,28)	(6,3)	(1,3)	(81,1)	(1,0)	(1,0)	(1,0)	(1,0)	(1,0)	(1,0)	(1,0)	(1,0)	(1,0)	(1,0)	(1,0)	
L1D -96>	(9,14)	(5,2)	(-4,1)	(95,20)	(11,2)	(-8,8)	(96,6)	(-16,10)	(97,1)	(84,1)	(7,1)	(2,1)	(1,0)	(1,0)	(1,0)	(1,0)	
L1D -95>	(9,2)	(2,8)	(1,0)	(135,1)	(45,91)	(90,18)	(0,3)	(83,0)	(-44,1)	(11,0)	(99,1)	(10,0)	(41,1)	(1,0)	(1,0)	(1,0)	
L1D -94>	(0,7)	(98,1)	(44,2)	(5,6)	(82,4)	(139,9)	(45,108)	(-50,19)	(90,69)	(40,29)	(135,24)	(-95,22)	(9,7)	(1,1)	(134,1)	(1,0)	
L1D -93>	(1,84)	(125,1)	(5,1)	(9,8)	(0,8)	(-2,39)	(-3,4)	(44,1)	(4,1)	(94,20)	(134,1)	(1,0)	(1,0)	(1,0)	(1,0)	(1,0)	
L1D -92>	(9,37)	(1,93)	(95,3)	(161,0)	(-8,8)	(1,0)	(1,0)	(1,0)	(1,0)	(1,0)	(1,0)	(1,0)	(1,0)	(1,0)	(1,0)	(1,0)	
L1D -91>	(1,98)	(2,0)	(0,0)	(4,0)	(9,3)	(1,0)	(1,0)	(1,0)	(1,0)	(1,0)	(1,0)	(1,0)	(1,0)	(1,0)	(1,0)	(1,0)	
L1D -90>	(1,83)	(0,16)	(5,8)	(4,10)	(14,0)	(130,0)	(-4,0)	(41,0)	(95,26)	(9,9)	(-44,0)	(1,0)	(1,0)	(1,0)	(1,0)	(1,0)	
L1D -89>	(1,72)	(-44,0)	(9,0)	(4,0)	(2,0)	(170,0)	(130,0)	(84,0)	(-31,0)	(14,0)	(129,0)	(1,0)	(1,0)	(1,0)	(1,0)	(1,0)	
L1D -88>	(1,82)	(84,0)	(2,0)	(4,3)	(0,6)	(88,0)	(9,6)	(5,0)	(-2,32)	(-15,36)	(-8,26)	(94,1)	(79,2)	(44,0)	(129,2)	(-31,0)	
L1D -87>	(1,73)	(4,0)	(41,0)	(9,1)	(-39,1)	(89,3)	(85,0)	(3,1)	(1,0)	(1,0)	(1,0)	(1,0)	(1,0)	(1,0)	(1,0)	(1,0)	
L1D -86>	(1,116)	(0,7)	(88,0)	(9,24)	(87,1)	(40,0)	(83,1)	(5,11)	(41,27)	(-4,1)	(4,0)	(84,1)	(78,2)	(3,1)	(85,0)	(167,0)	
L1D -85>	(0,25)	(43,7)	(1,97)	(9,6)	(4,5)	(126,4)	(41,2)	(5,3)	(42,6)	(-5,7)	(125,68)	(3,2)	(76,2)	(40,1)	(44,2)	(8,3)	
L1D -84>	(42,13)	(44,3)	(41,21)	(43,1)	(0,11)	(1,8)	(5,2)	(4,5)	(124,14)	(2,1)	(125,70)	(9,1)	(3,1)	(83,2)	(-8,22)	(165,2)	
L1D -83>	(42,3)	(41,99)	(1,29)	(-79,0)	(78,1)	(40,13)	(5,1)	(-42,4)	(124,27)	(165,0)	(0,5)	(82,2)	(4,0)	(-44,0)	(166,1)	(-41,1)	
L1D -82>	(41,25)	(0,38)	(82,5)	(83,3)	(1,116)	(2,13)	(5,15)	(-1,20)	(122,1)	(-8,35)	(40,7)	(-3,91)	(71,1)	(9,4)	(4,63)	(81,44)	
L1D -81>	(120,1)	(-3,1)	(41,15)	(36,1)	(5,110)	(4,12)	(9,16)	(40,11)	(71,5)	(122,3)	(0,29)	(1,97)	(-1,2)	(-4,4)	(162,2)	(121,4)	
L1D -80>	(-1,15)	(79,2)	(0,42)	(1,11)	(41,10)	(5,5)	(2,2)	(120,2)	(81,2)	(44,53)	(121,7)	(9,5)	(4,11)	(-5,8)	(40,11)	(38,1)	
L1D -79>	(1,13)	(125,1)	(83,26)	(-1,2)	(41,9)	(-3,67)	(-2,109)	(2,14)	(120,1)	(0,5)	(40,5)	(81,1)	(5,3)	(4,3)	(-44,1)	(1,0)	
L1D -78>	(1,12)	(39,1)	(2,19)	(-3,65)	(40,1)	(0,6)	(125,2)	(-44,2)	(41,1)	(38,6)	(4,1)	(1,0)	(1,0)	(1,0)	(1,0)	(1,0)	
L1D -77>	(38,9)	(0,20)	(-9,6)	(-8,8)	(84,27)	(-4,34)	(1,1)	(5,10)	(41,9)	(72,5)	(-36,2)	(117,3)	(9,7)	(81,115)	(2,14)	(4,33)	
L1D -76>	(-5,18)	(0,10)	(80,2)	(1,2)	(3,1)	(4,20)	(117,8)	(76,1)	(-36,4)	(9,1)	(89,4)	(157,2)	(5,4)	(116,1)	(40,4)	(1,0)	
L1D -75>	(80,2)	(0,1)	(40,2)	(1,4)	(116,1)	(9,1)	(35,1)	(1,0)	(1,0)	(1,0)	(1,0)	(1,0)	(1,0)	(1,0)	(1,0)	(1,0)	
L1D -74>	(4,1)	(-3,4)	(38,24)	(-44,3)	(8,1)	(1,0)	(1,0)	(1,0)	(1,0)	(1,0)	(1,0)	(1,0)	(1,0)	(1,0)	(1,0)	(1,0)	
L1D -73>	(76,16)	(7,1)	(1,0)	(1,0)	(1,0)	(1,0)	(1,0)	(1,0)	(1,0)	(1,0)	(1,0)	(1,0)	(1,0)	(1,0)	(1,0)	(1,0)	
L1D -72>	(-4,10)	(0,60)	(-5,10)	(-9,15)	(2,2)	(4,8)	(6,2)	(63,15)	(117,8)	(9,2)	(44,3)	(81,2)	(112,1)	(13,4)	(40,8)	(67,1)	
L1D -71>	(5,3)	(44,10)	(0,6)	(-6,1)	(-1,82)	(-3,99)	(4,4)	(1,87)	(65,68)	(76,2)	(-5,1)	(1,0)	(1,0)	(1,0)	(1,0)	(1,0)	
L1D -70>	(57,2)	(44,0)	(1,0)	(6,0)	(40,0)	(68,98)	(4,6)	(-2,17)	(-3,7)	(72,2)	(3,0)	(1,0)	(1,0)	(1,0)	(1,0)	(1,0)	
L1D -69>	(41,1)	(38,1)	(34,31)	(4,3)	(5,2)	(78,1)	(1,0)	(1,0)	(1,0)	(1,0)	(1,0)	(1,0)	(1,0)	(1,0)	(1,0)	(1,0)	
L1D -68>	(8,7)	(1,18)	(72,33)	(-1,1)	(-2,79)	(66,4)	(-4,4)	(2,3)	(-3,1)	(41,0)	(6,14)	(113,0)	(0,3)	(59,1)	(3,2)	(5,0)	
L1D -67>	(1,107)	(69,3)	(-3,127)	(2,6)	(-2,2)	(-8,27)	(58,1)	(4,6)	(21,2)	(112,1)	(0,2)	(5,1)	(1,0)	(1,0)	(1,0)	(1,0)	
L1D -66>	(8,120)	(1,23)	(-1,0)	(-4,15)	(-7,1)	(46,9)	(55,7)	(11,3)	(3,0)	(9,0)	(-5,0)	(61,1)	(1,0)	(1,0)	(1,0)	(1,0)	
L1D -65>	(1,82)	(70,0)	(-1,0)	(-5,1)	(53,0)	(-44,2)	(1,0)	(1,0)	(1,0)	(1,0)	(1,0)	(1,0)	(1,0)	(1,0)	(1,0)	(1,0)	
L1D -64>	(1,121)	(-4,1)	(0,1)	(53,2)	(3,2)	(63,1)	(108,0)	(1,0)	(1,0)	(1,0)	(1,0)	(1,0)	(1,0)	(1,0)	(1,0)	(1,0)	
L1D -63>	(1,78)	(103,3)	(59,3)	(0,23)	(63,18)	(4,14)	(22,20)	(17,24)	(21,3)	(43,2)	(67,4)	(-9,2)	(104,1)	(-5,4)	(54,14)	(58,2)	
L1D -62>	(1,2)	(67,7)	(58,1)	(-2,89)	(-1,62)	(2,12)	(56,117)	(-12,7)	(51,4)	(22,6)	(4,13)	(9,2)	(0,47)	(62,31)	(-6,11)	(44,2)	
L1D -61>	(1,7)	(-1,1)	(50,1)	(43,3)	(4,1)	(61,1)	(1,0)	(1,0)	(1,0)	(1,0)	(1,0)	(1,0)	(1,0)	(1,0)	(1,0)	(1,0)	
L1D -60>	(3,2)	(-2,6)	(0,4)	(1,24)	(-4,13)	(16,1)	(28,7)	(33,9)	(23,11)	(8,46)	(20,30)	(-9,5)	(37,1)	(39,3)	(60,3)	(2,3)	
L1D -59>	(1,4)	(23,1)	(0,7)	(20,51)	(26,5)	(48,3)	(50,22)	(5,3)	(19,3)	(4,1)	(125,1)	(58,1)	(54,1)	(1,0)	(1,0)	(1,0)	
L1D -58>	(1,2)	(4,2)	(-2,54)	(-15,4)	(8,15)	(48,35)	(-1,8)	(-5,1)	(-9,3)	(49,17)	(9,1)	(-44,2)	(19,1)	(0,6)	(-11,1)	(59,1)	
L1D -57>	(57,15)	(-2,125)	(1,8)	(2,25)	(55,9)	(0,9)	(62,11)	(-1,0)	(-5,6)	(39,7)	(58,7)	(9,1)	(-11,1)	(46,3)	(1,0)	(1,0)	
L1D -56>	(-1,20)	(-3,2)	(-2,36)	(-11,1)	(48,2)	(5,2)	(203,2)	(69,1)	(44,3)	(82,2)	(46,1)	(1,2)	(-4,1)	(1,0)	(1,0)	(1,0)	
L1D -55>	(57,33)	(-2,57)	(-9,38)	(24,1)	(70,6)	(48,1)	(44,5)	(69,3)	(60,11)	(16,114)	(63,14)	(37,11)	(66,1)	(2,77)	(-1,1)	(17,2)	
L1D -54>	(104,4)	(-4,2)	(1,3)	(-50,1)	(5,2)	(44,4)	(4,1)	(-9,2)	(-49,5)	(45,93)	(94,3)	(49,13)	(0,3)	(95,10)	(99,7)	(50,15)	
L1D -53>	(0,9)	(53,4)	(1,3)	(4,2)	(-2,3)	(61,1)	(21,9)	(6,25)	(9,1)	(125,2)	(-4,2)	(5,2)	(3,2)	(49,1)	(1,0)	(1,0)	
L1D -52>	(1,3)	(-10,47)	(44,21)	(20,24)	(8,11)	(-1,4)	(4,21)	(2,30)	(40,1)	(-6,3)	(-8,1)	(21,1)	(1,0)	(1,0)	(1,0)	(1,0)	
L1D -51>	(44,7)	(4,4)	(72,5)	(71,8)	(41,5)	(2,1)	(1,0)	(1,0)	(1,0)	(1,0)	(1,0)	(1,0)	(1,0)	(1,0)	(1,0)	(1,0)	
L1D -50>	(9,51)	(0,26)	(1,17)	(5,15)	(18,1)	(61,4)	(-4,18)	(95,111)	(144,5)	(90,39)	(41,81)	(-54,10)	(-49,9)	(99,6)	(4,3)	(-9,4)	
L1D -49>	(4,17)	(0,12)	(18,6)	(89,3)	(99,2)	(-5,14)	(9,9)	(5,5)	(8,1)	(40,44)	(43,8)	(90,2)	(50,2)	(-50,12)	(94,109)	(41,2)	
L1D -48>	(5,2)	(-9,118)	(49,2)	(-10,44)	(44,4)	(6,3)	(9,10)	(89,3)	(13,4)	(40,2)	(4,3)	(20,32)	(58,1)	(59,3)	(17,1)	(47,1)	
L1D -47>	(48,0)	(81,0)	(0,85)	(49,52)	(53,1)	(-3,3)	(-2,15)	(2,18)	(7,4)	(3,6)	(20,4)	(40,0)	(125,2)	(39,0)	(38,4)	(68,2)	
L1D -46>	(2,1)	(-3,125)	(5,86)	(41,1)	(1,33)	(3,1)	(40,3)	(-1,91)	(-4,0)	(31,36)	(-2,0)	(67,0)	(-17,2)	(86,1)	(-44,1)	(4,2)	
L1D -45>	(0,37)	(1,17)	(5,63)	(4,20)	(-4,9)	(86,2)	(-9,2)	(3,3)	(40,4)	(-2,48)	(43,124)	(-5,25)	(2,9)	(85,40)	(13,4)	(41,9)	
L1D -44>	(0,8)	(41,3)	(85,45)	(84,59)	(42,1)	(4,4)	(49,1)	(-3,1)	(-1,4)	(13,2)	(125,37)	(40,7)	(-8,10)	(-24,1)	(-22,87)	(21,51)	
L1D -43>	(42,5)	(44,8)	(-17,23)	(40,6)	(38,92)	(84,1)	(41,9)	(0,14)	(-1,2)	(47,70)	(-19,24)	(85,2)	(83,5)	(-2,49)	(-42,2)	(33,5)	
L1D -42>	(41,22)	(-1,2)	(82,13)	(40,5)	(-24,4)	(1,2)	(53,2)	(-3,60)	(-42,3)	(5,4)	(-5,83)	(-21,10)	(46,14)	(-22,4)	(83,43)	(-9,1)	
L1D -41>	(-323,3)	(21,6)	(41,11)	(17,21)	(22,8)	(82,4)	(0,15)	(-8,1)	(-2,2)	(-3,12)	(5,68)	(9,29)	(2,2)	(81,42)	(39,2)	(-4,5)	
L1D -40>	(40,93)	(1,12)	(22,15)	(0,83)	(3,1)	(4,44)	(2,13)	(-22,9)	(5,11)	(44,29)	(81,87)	(9,24)	(-4,26)	(12,29)	(28,27)	(42,21)	
L1D -39>	(1,21)	(39,1)	(40,115)	(0,19)	(28,7)	(3,8)	(79,4)	(44,28)	(-16,6)	(58,5)	(-5,17)	(-2,26)	(38,21)	(41,13)	(42,4)	(9,3)	
L1D -38>	(31,0)	(38,4)	(36,73)	(77,0)	(78,0)	(0,0)	(-2,0)	(-3,0)	(2,0)	(40,5)	(41,2)	(3,1)	(-20,0)	(39,1)	(1,1)	(46,1)	
L1D -37>	(37,16)	(77,15)	(38,10)	(0,7)	(-3,12)	(78,5)	(40,99)	(5,7)	(41,26)	(16,2)	(36,10)	(1,10)	(12,25)	(39,4)	(30,3)	(26,10)	
L1D -36>	(36,119)	(38,17)	(5,1)	(44,0)	(0,1)	(77,0)	(-4,1)	(40,3)	(81,0)	(41,0)	(4,2)	(-5,1)	(9,1)	(1,0)	(26,0)	(62,0)	
L1D -35>	(44,6)	(-6,7)	(45,1)	(11,2)	(76,1)	(33,1)	(4,2)	(-3,52)	(40,2)	(1,33)	(0,23)	(19,15)	(-1,92)	(-5,15)	(9,16)	(29,1)	
L1D -34>	(-2,15)	(34,5)	(9,32)	(3,25)	(7,19)	(10,64)	(47,44)	(16,15)	(-7,7)	(-1,4)	(0,11)	(33,6)	(-5,7)	(-48,1)	(8,4)	(13,2)	
L1D -33>	(16,34)	(-3,1)	(2,14)	(33,15)	(9,4)	(28,7)	(-25,29)	(36,66)	(0,4)	(1,22)	(-1,74)	(31,36)	(44,3)	(26,24)	(43,7)	(-5,17)	
L1D -32>	(-25,6)	(-2,2)	(25,2)	(41,71)	(36,50)	(-3,2)	(14,16)	(9,22)	(5,19)	(44,3)	(30,3)	(26,1)	(16,2)	(-9,1)	(0,3)	(31,29)	
L1D -31>	(-5,46)	(21,7)	(0,20)	(2,4)	(36,27)	(8,1)	(5,18)	(-3,13)	(7,8)	(4,11)	(9,31)	(6,8)	(15,45)	(40,72)	(-18,36)	(44,6)	
L1D -30>	(1,8)	(79,1)	(27,18)	(40,5)	(2,9)	(-5,87)	(0,10)	(-1,68)	(-6,7)	(14,35)	(8,6)	(-4,20)	(4,15)	(31,23)	(-7,36)	(-2,7)	
L1D -29>	(34,1)	(41,2)	(12,1)	(30,1)	(18,1)	(38,1)	(-2,119)	(7,0)	(40,2)	(23,4)	(-145,0)	(14,10)	(21,18)	(3,0)	(4,1)	(-9,2)	
L1D -28>	(16,3)	(31,40)	(-3,30)	(3,6)	(33,20)	(0,97)	(1,2)	(-4,11)	(4,31)	(7,35)	(-1,8)	(25,2)	(27,28)	(28,126)	(41,106)	(36,22)	
L1D -27>	(28,3)	(26,3)	(9,11)	(-18,55)	(32,10)	(23,18)	(31,14)	(-5,3)	(-6,15)	(3,1)	(0,74)	(36,2)	(4,8)	(-2,13)	(1,8)	(-1,4)	
L1D -26>	(14,1)	(29,33)	(10,29)	(18,42)	(4,5)	(6,6)	(-4,6)	(7,10)	(23,5)	(26,3)	(2,84)	(1,5)	(-2,18)	(20,27)	(0,15)	(-5,33)	
L1D -25>	(-1,50)	(26,69)	(-2,4)	(-4,24)	(-10,31)	(25,9)	(47,21)	(73,1)	(-36,19)	(12,38)	(29,7)	(38,18)	(14,13)	(7,3)	(9,125)	(62,9)	
L1D -24>	(16,6)	(-1,12)	(-3,8)	(14,3)	(25,83)	(-4,81)	(-2,15)	(18,14)	(-19,10)	(3,5)	(20,8)	(32,11)	(19,17)	(-9,82)	(36,2)	(37,9)	
L1D -23>	(11,51)	(-1,5)	(32,35)	(9,44)	(0,13)	(-20,24)	(23,80)	(1,80)	(27,17)	(22,19)	(-21,21)	(5,33)	(19,30)	(25,10)	(2,11)	(4,1)	
L1D -22>	(-10,12)	(31,2)	(-25,11)	(20,13)	(-1,17)	(4,49)	(61,93)	(40,19)	(1,12)	(14,12)	(5,106)	(-9,68)	(10,15)	(0,52)	(-158,9)	(-5,20)	
L1D -21>	(-2,4)	(10,19)	(-10,59)	(-5,8)	(21,35)	(-18,11)	(-7,15)	(36,4)	(14,17)	(-1,35)	(1,5)	(19,3)	(12,1)	(25,19)	(16,118)	(-14,3)	
L1D -20>	(-11,5)	(-8,3)	(-7,4)	(19,2)	(8,2)	(4,1)	(-4,2)	(38,2)	(-25,2)	(16,10)	(-19,1)	(10,106)	(-3,1)	(31,4)	(-6,13)	(43,2)	
L1D -19>	(37,19)	(23,1)	(-6,49)	(-2,70)	(3,56)	(53,9)	(24,18)	(4,26)	(8,17)	(7,10)	(26,54)	(25,47)	(21,7)	(27,47)	(12,16)	(-4,22)	
L1D -18>	(-2,21)	(18,30)	(16,77)	(10,30)	(3,0)	(-6,1)	(-10,15)	(11,4)	(-19,12)	(21,3)	(8,0)	(22,1)	(23,0)	(17,1)	(14,1)	(5,1)	
L1D -17>	(-14,56)	(-7,6)	(52,48)	(-6,67)	(0,26)	(9,12)	(-11,40)	(39,25)	(-15,2)	(19,19)	(16,9)	(-5,118)	(4,28)	(1,41)	(41,6)	(55,12)	
L1D -16>	(8,54)	(-11,44)	(-9,102)	(1,3)	(24,39)	(31,0)	(-2,1)	(21,0)	(-10,119)	(-8,11)	(18,0)	(16,0)	(-6,0)	(-1,0)	(4,0)	(19,0)	
L1D -15>	(8,29)	(-1,11)	(-3,5)	(14,83)	(7,10)	(16,19)	(9,4)	(-11,35)	(15,10)	(0,79)	(-4,82)	(33,2)	(1,59)	(17,11)	(-5,6)	(2,15)	
L1D -14>	(-4,3)	(-6,8)	(-2,6)	(10,45)	(3,3)	(33,1)	(-86,8)	(19,12)	(8,72)	(-5,5)	(15,4)	(56,3)	(111,44)	(119,54)	(14,5)	(1,6)	
L1D -13>	(31,55)	(17,46)	(4,34)	(2,46)	(23,4)	(-6,23)	(0,10)	(13,34)	(3,78)	(25,8)	(8,1)	(12,15)	(14,24)	(26,95)	(-3,37)	(-89,45)	
L1D -12>	(11,12)	(44,16)	(5,19)	(12,20)	(4,13)	(-28,11)	(-21,87)	(3,14)	(-7,1)	(1,77)	(-10,39)	(10,6)	(0,16)	(-3,47)	(-6,16)	(22,26)	
L1D -11>	(14,4)	(-1,38)	(-55,2)	(1,67)	(4,2)	(3,28)	(13,1)	(29,1)	(-3,21)	(17,2)	(-2,4)	(12,3)	(2,19)	(5,2)	(7,38)	(8,0)	
L1D -10>	(-92,6)	(23,11)	(2,85)	(18,65)	(14,1)	(-3,11)	(8,7)	(12,3)	(-8,6)	(10,3)	(3,1)	(11,1)	(9,1)	(-93,0)	(-10,3)	(7,0)	
L1D -9>	(-64,3)	(5,1)	(-1,109)	(7,2)	(21,8)	(12,3)	(37,3)	(-8,3)	(-207,1)	(9,3)	(-2,4)	(49,5)	(26,2)	(1,5)	(50,11)	(10,1)	
L1D -8>	(-9,75)	(136,9)	(14,4)	(4,1)	(19,4)	(12,1)	(-8,95)	(144,3)	(-268,0)	(-10,16)	(-13,4)	(-1,9)	(16,5)	(9,1)	(24,13)	(8,1)	
L1D -7>	(3,54)	(-14,2)	(10,12)	(9,89)	(1,62)	(-16,28)	(15,22)	(5,30)	(8,40)	(7,12)	(-3,24)	(-7,29)	(-10,21)	(0,25)	(-2,49)	(-1,15)	
L1D -6>	(5,118)	(4,18)	(0,44)	(32,16)	(-1,58)	(2,56)	(-2,36)	(1,51)	(-5,28)	(11,68)	(19,1)	(-6,15)	(-3,18)	(14,61)	(6,50)	(3,76)	
L1D -5>	(5,118)	(-24,15)	(0,3)	(-17,12)	(-252,1)	(-32,4)	(-324,1)	(-18,17)	(4,4)	(-1,104)	(45,67)	(-16,14)	(50,19)	(-243,1)	(-4,22)	(-76,1)	
L1D -4>	(0,12)	(-9,21)	(45,40)	(49,7)	(9,8)	(-3,4)	(6,89)	(4,14)	(-33,1)	(3,30)	(5,5)	(-5,32)	(-1,5)	(-11,6)	(-4,3)	(1,20)	
L1D -3>	(-1,88)	(-7,67)	(-67,2)	(0,15)	(43,11)	(4,29)	(-15,7)	(2,33)	(20,12)	(3,11)	(-2,18)	(23,21)	(14,5)	(10,4)	(8,26)	(-5,8)	
L1D -2>	(1,1)	(2,68)	(-9,13)	(20,1)	(18,4)	(-36,39)	(12,4)	(23,0)	(43,0)	(-3,0)	(3,1)	(10,0)	(0,45)	(200,0)	(14,1)	(16,4)	
L1D -1>	(2,95)	(169,2)	(42,4)	(1,35)	(-5,1)	(5,1)	(161,5)	(-248,0)	(-120,0)	(41,5)	(-9,1)	(18,11)	(-8,0)	(-249,0)	(6,1)	(0,1)	
L1D 0>	(0,122)	(18,1)	(-4,2)	(-5,18)	(3,1)	(2,13)	(1,51)	(4,0)	(9,1)	(6,5)	(-9,0)	(-2,16)	(5,4)	(-176,14)	(-18,15)	(-1,1)	
L1D 1>	(16,1)	(1,111)	(-14,1)	(-15,1)	(40,2)	(67,2)	(165,2)	(0,26)	(39,2)	(243,2)	(68,1)	(-4,7)	(2,9)	(81,6)	(191,1)	(84,4)	
L1D 2>	(-12,0)	(24,66)	(-6,0)	(1,34)	(-2,31)	(-16,0)	(-9,2)	(-18,1)	(0,66)	(-15,2)	(2,0)	(-1,8)	(-274,0)	(16,70)	(-38,10)	(-3,0)	
L1D 3>	(-2,118)	(-11,7)	(5,10)	(3,44)	(38,25)	(2,95)	(37,30)	(-31,10)	(27,5)	(-300,1)	(0,20)	(1,106)	(-4,14)	(4,29)	(31,5)	(-17,57)	
L1D 4>	(9,97)	(-6,3)	(5,82)	(-1,66)	(-13,9)	(18,6)	(-202,1)	(32,38)	(23,2)	(27,2)	(36,89)	(-4,10)	(14,2)	(-31,11)	(0,4)	(1,9)	
L1D 5>	(-122,1)	(-5,10)	(-9,5)	(-162,1)	(0,113)	(-243,1)	(-90,1)	(-4,24)	(4,28)	(36,35)	(3,1)	(31,18)	(-131,1)	(-1,3)	(-284,1)	(-81,1)	
L1D 6>	(0,6)	(-203,1)	(-7,1)	(-324,1)	(-5,123)	(-8,1)	(-1,2)	(-24,1)	(35,1)	(21,1)	(-10,2)	(-3,2)	(3,1)	(12,6)	(-2,9)	(-4,2)	
L1D 7>	(-6,31)	(-4,8)	(15,16)	(2,6)	(14,3)	(-3,18)	(-2,29)	(1,63)	(-8,94)	(-9,34)	(-1,40)	(186,37)	(0,38)	(-10,47)	(-7,7)	(-15,19)	
L1D 8>	(3,10)	(-16,123)	(-10,4)	(8,17)	(15,2)	(-4,1)	(-7,1)	(4,0)	(-18,4)	(-227,0)	(-27,0)	(-8,0)	(272,0)	(-9,0)	(9,0)	(-1,0)	
L1D 9>	(-2,2)	(-10,32)	(-9,13)	(31,112)	(32,86)	(-1,7)	(0,3)	(-4,5)	(1,44)	(-252,2)	(-171,4)	(4,21)	(5,23)	(9,102)	(319,1)	(27,1)	
L1D 10>	(23,10)	(8,66)	(-5,10)	(5,25)	(-24,2)	(2,9)	(-7,21)	(1,5)	(-11,6)	(-3,7)	(-20,6)	(-12,2)	(176,0)	(-9,5)	(15,3)	(-10,20)	
L1D 11>	(2,21)	(-17,60)	(-11,11)	(-10,60)	(-230,2)	(-21,23)	(6,35)	(-18,7)	(-14,21)	(4,24)	(5,16)	(36,8)	(-9,20)	(-3,26)	(-16,83)	(-7,58)	
L1D 12>	(-3,48)	(-11,102)	(-4,4)	(-1,23)	(-19,6)	(-15,33)	(8,30)	(-5,46)	(-8,7)	(-23,2)	(-273,1)	(5,2)	(-2,3)	(27,1)	(0,1)	(23,1)	
L1D 13>	(-10,45)	(-18,30)	(-57,16)	(-5,26)	(-2,39)	(2,18)	(4,22)	(13,2)	(40,27)	(-4,9)	(20,8)	(-32,1)	(3,6)	(0,37)	(-14,101)	(5,32)	
L1D 14>	(-13,16)	(-7,12)	(4,9)	(12,4)	(17,22)	(-256,9)	(-5,70)	(-19,6)	(-16,6)	(5,5)	(9,4)	(-2,5)	(-1,5)	(-17,12)	(1,3)	(0,15)	
L1D 15>	(-16,49)	(3,22)	(8,50)	(47,14)	(-15,82)	(-87,2)	(-1,15)	(-5,103)	(0,82)	(2,47)	(7,19)	(-10,22)	(-8,12)	(-86,58)	(5,46)	(4,124)	
L1D 16>	(-3,0)	(2,33)	(-26,0)	(7,0)	(-24,0)	(-4,0)	(3,0)	(6,0)	(44,0)	(-13,0)	(8,100)	(-15,2)	(23,0)	(-11,0)	(10,1)	(0,0)	
L1D 17>	(1,94)	(-30,6)	(-15,46)	(-1,6)	(6,11)	(-4,16)	(-14,3)	(38,2)	(-11,2)	(-21,4)	(-17,23)	(4,52)	(0,7)	(22,3)	(-16,19)	(8,1)	
L1D 18>	(8,90)	(-5,2)	(3,3)	(258,0)	(-4,3)	(272,0)	(-15,0)	(0,0)	(-2,10)	(1,0)	(-7,1)	(5,0)	(4,0)	(-19,0)	(-8,1)	(-11,0)	
L1D 19>	(-14,4)	(-5,114)	(-3,13)	(-7,93)	(-23,1)	(39,19)	(11,37)	(1,9)	(-11,11)	(0,10)	(6,12)	(-37,14)	(-15,35)	(-19,4)	(-8,68)	(-18,11)	
L1D 20>	(3,18)	(-21,35)	(-39,8)	(-19,49)	(-17,13)	(-7,6)	(16,3)	(5,21)	(-12,17)	(-16,95)	(-11,6)	(27,19)	(-26,24)	(1,6)	(4,34)	(-22,3)	
L1D 21>	(-13,1)	(-5,123)	(-7,56)	(1,38)	(-6,29)	(2,11)	(-18,93)	(-2,5)	(-3,6)	(23,26)	(-9,10)	(-10,44)	(-19,8)	(-1,9)	(-23,16)	(-15,24)	
L1D 22>	(-10,52)	(-6,38)	(-5,22)	(-18,26)	(-24,20)	(5,8)	(9,37)	(-12,70)	(-22,8)	(1,11)	(0,22)	(-283,1)	(-13,37)	(-15,29)	(-21,11)	(-2,89)	
L1D 23>	(-41,5)	(-26,5)	(2,5)	(-44,6)	(6,7)	(-52,8)	(-28,56)	(-23,7)	(-30,8)	(-43,95)	(4,78)	(13,31)	(-24,5)	(-31,38)	(-25,50)	(-12,4)	
L1D 24>	(1,54)	(-17,0)	(-4,0)	(-16,0)	(-25,0)	(2,0)	(-8,124)	(-12,0)	(-13,0)	(-9,0)	(-23,0)	(-15,0)	(-30,0)	(0,0)	(12,0)	(-6,0)	
L1D 25>	(0,7)	(-24,7)	(-27,3)	(2,7)	(-1,10)	(-2,4)	(-28,3)	(1,63)	(45,3)	(-11,32)	(-21,9)	(-18,4)	(-26,127)	(-15,52)	(-13,5)	(-7,31)	
L1D 26>	(-16,119)	(2,10)	(-5,118)	(-15,4)	(-8,10)	(12,27)	(-28,6)	(-44,3)	(-92,21)	(-93,6)	(4,5)	(-25,1)	(-91,51)	(7,11)	(-90,4)	(-9,43)	
L1D 27>	(1,37)	(-13,40)	(-40,22)	(-6,13)	(-5,21)	(0,15)	(-19,47)	(-8,1)	(-27,41)	(-28,40)	(-31,93)	(-18,54)	(-21,103)	(-39,39)	(4,32)	(-42,18)	
L1D 28>	(-93,3)	(-91,5)	(3,43)	(-9,36)	(-7,36)	(-28,75)	(6,5)	(0,53)	(-3,8)	(-18,7)	(5,3)	(-30,9)	(-34,9)	(-27,10)	(11,15)	(-21,1)	
L1D 29>	(-2,0)	(-90,11)	(-91,3)	(-3,29)	(-85,1)	(-15,75)	(-92,4)	(-89,1)	(-87,1)	(-9,2)	(-88,1)	(-10,3)	(-31,10)	(-42,2)	(-29,7)	(4,15)	
L1D 30>	(1,15)	(-32,81)	(-15,1)	(41,18)	(-33,47)	(4,24)	(10,5)	(5,34)	(9,9)	(-30,10)	(0,2)	(-19,3)	(-10,4)	(6,5)	(-31,4)	(-7,6)	
L1D 31>	(5,52)	(9,87)	(14,0)	(-25,1)	(-18,2)	(6,1)	(-30,1)	(-20,1)	(1,25)	(40,8)	(41,6)	(4,15)	(-4,20)	(-22,7)	(-27,12)	(0,2)	
L1D 32>	(-38,0)	(9,83)	(4,2)	(-5,0)	(-26,0)	(11,0)	(-31,4)	(-23,2)	(-17,2)	(-27,0)	(-34,0)	(1,0)	(-10,0)	(-18,0)	(0,2)	(5,1)	
L1D 33>	(3,85)	(-15,3)	(40,0)	(-31,2)	(-23,13)	(-19,3)	(10,14)	(0,24)	(-28,6)	(-17,5)	(4,11)	(-1,4)	(-29,2)	(-13,1)	(-5,3)	(-36,0)	
L1D 34>	(-32,43)	(-24,18)	(-15,31)	(-16,4)	(1,10)	(41,1)	(0,10)	(-20,9)	(-27,7)	(-43,8)	(-4,7)	(23,36)	(-2,8)	(-35,20)	(13,32)	(9,3)	
L1D 35>	(1,19)	(-162,3)	(-102,21)	(-101,17)	(-38,4)	(-4,14)	(-5,12)	(4,20)	(41,122)	(-103,3)	(6,2)	(-121,1)	(5,55)	(40,14)	(0,6)	(9,7)	
L1D 36>	(-101,0)	(-5,0)	(4,43)	(-27,0)	(5,27)	(-29,0)	(40,0)	(0,0)	(-35,0)	(41,0)	(1,0)	(-10,11)	(2,124)	(-32,0)	(3,0)	(9,0)	
L1D 37>	(-54,0)	(1,72)	(0,3)	(40,13)	(23,8)	(-102,45)	(-38,1)	(-101,7)	(3,38)	(41,9)	(2,76)	(-103,1)	(-17,5)	(-36,1)	(-5,2)	(-21,1)	
L1D 38>	(1,95)	(-38,5)	(-37,15)	(40,18)	(0,8)	(-2,83)	(-55,64)	(-10,6)	(3,52)	(41,15)	(-12,10)	(2,96)	(-36,4)	(-121,1)	(-30,6)	(-5,9)	
L1D 39>	(9,4)	(-38,3)	(1,107)	(40,9)	(41,23)	(-10,5)	(-37,9)	(-203,1)	(-44,2)	(0,2)	(-55,1)	(2,14)	(3,11)	(24,17)	(43,1)	(4,4)	
L1D 40>	(-161,1)	(-162,3)	(0,1)	(-315,1)	(-40,1)	(-101,0)	(41,100)	(-202,2)	(-39,1)	(-121,2)	(-80,0)	(-324,1)	(1,0)	(40,9)	(-81,0)	(-283,0)	
L1D 41>	(1,7)	(-41,1)	(0,0)	(41,0)	(-324,1)	(-243,1)	(-202,0)	(-203,1)	(124,0)	(-5,1)	(-1,15)	(40,72)	(-122,1)	(42,0)	(-32,0)	(-162,1)	
L1D 42>	(40,78)	(-2,28)	(-3,9)	(42,18)	(0,3)	(3,4)	(8,3)	(-1,26)	(-41,11)	(41,22)	(-124,5)	(-10,5)	(4,14)	(1,4)	(-81,1)	(83,3)	
L1D 43>	(0,11)	(42,8)	(-4,2)	(41,16)	(20,13)	(-41,7)	(-204,1)	(83,3)	(-1,25)	(-42,124)	(-3,29)	(-39,6)	(-10,11)	(5,5)	(40,23)	(-2,44)	
L1D 44>	(-1,5)	(0,2)	(21,2)	(-4,18)	(81,4)	(41,117)	(40,102)	(-31,23)	(-27,7)	(-23,31)	(26,2)	(-2,11)	(-44,2)	(23,2)	(-3,8)	(3,1)	
L1D 45>	(2,0)	(-5,81)	(-4,89)	(-94,11)	(-9,19)	(95,3)	(40,23)	(-24,1)	(94,1)	(50,11)	(-95,3)	(41,3)	(-44,2)	(90,8)	(59,1)	(-54,5)	
L1D 46>	(81,1)	(3,7)	(4,11)	(13,44)	(-46,16)	(11,12)	(-15,63)	(-8,8)	(-47,6)	(-27,3)	(2,10)	(-66,25)	(-28,3)	(-50,5)	(-6,3)	(40,7)	
L1D 47>	(-43,1)	(-49,6)	(-48,17)	(4,30)	(-57,10)	(-28,8)	(-46,107)	(0,35)	(2,46)	(-6,4)	(-45,20)	(-32,7)	(-35,61)	(-47,63)	(-39,2)	(3,29)	
L1D 48>	(-24,10)	(9,8)	(1,9)	(-44,34)	(77,4)	(5,9)	(0,21)	(-40,38)	(-8,5)	(2,3)	(41,93)	(81,4)	(-53,5)	(-31,21)	(-28,6)	(-49,1)	
L1D 49>	(-9,124)	(-4,44)	(-103,5)	(4,19)	(40,35)	(-44,6)	(41,6)	(45,8)	(-43,2)	(-41,1)	(-54,0)	(-40,1)	(-48,1)	(-144,6)	(-58,1)	(-45,1)	
L1D 50>	(-5,52)	(-9,65)	(-153,0)	(-99,0)	(-46,0)	(67,0)	(-194,0)	(40,0)	(-104,3)	(-54,3)	(45,1)	(94,0)	(-32,1)	(-59,1)	(49,2)	(-144,4)	
L1D 51>	(4,60)	(-30,1)	(13,4)	(-39,4)	(-17,28)	(14,1)	(1,1)	(1,0)	(1,0)	(1,0)	(1,0)	(1,0)	(1,0)	(1,0)	(1,0)	(1,0)	
L1D 52>	(-8,0)	(1,1)	(-51,4)	(21,0)	(-58,1)	(-32,2)	(-57,0)	(40,0)	(-14,114)	(-66,2)	(-47,0)	(-11,0)	(-62,0)	(-31,0)	(-10,1)	(-1,0)	
L1D 53>	(40,2)	(4,18)	(-9,2)	(41,1)	(-49,2)	(-41,1)	(1,6)	(-11,92)	(-33,17)	(-32,7)	(-10,4)	(-55,17)	(5,10)	(-76,1)	(-71,2)	(9,4)	
L1D 54>	(-13,5)	(49,5)	(-49,1)	(-8,3)	(-104,9)	(-40,8)	(-35,2)	(-11,6)	(-38,4)	(-24,4)	(40,5)	(-4,29)	(-9,32)	(-5,33)	(-103,15)	(-153,9)	
L1D 55>	(-38,1)	(-55,108)	(-30,4)	(-11,1)	(4,4)	(7,6)	(-60,17)	(-1,1)	(-8,6)	(-32,8)	(-18,6)	(5,63)	(-39,10)	(-53,19)	(-56,1)	(-57,1)	
L1D 56>	(-48,74)	(-55,43)	(-13,1)	(-54,2)	(-58,9)	(-10,8)	(-59,1)	(-33,9)	(-1,3)	(-11,4)	(-12,3)	(1,3)	(1,0)	(1,0)	(1,0)	(1,0)	
L1D 57>	(0,23)	(1,33)	(-40,5)	(-47,96)	(4,57)	(-57,35)	(2,48)	(-48,49)	(-45,16)	(-58,7)	(-60,25)	(-21,9)	(-1,53)	(-8,9)	(-10,2)	(-38,6)	
L1D 58>	(-59,4)	(-69,5)	(45,2)	(-41,4)	(-40,2)	(-42,11)	(-63,19)	(-4,24)	(-9,21)	(59,2)	(-47,4)	(2,4)	(-67,1)	(-19,2)	(-49,2)	(54,2)	
L1D 59>	(4,108)	(6,1)	(-47,7)	(-58,26)	(-48,111)	(-56,19)	(2,2)	(-57,13)	(-5,22)	(-63,4)	(-9,18)	(-50,1)	(-45,0)	(-11,2)	(-68,3)	(49,0)	
L1D 60>	(1,7)	(-60,2)	(-69,7)	(-21,13)	(-44,19)	(-23,3)	(5,1)	(-47,1)	(6,1)	(-43,1)	(2,1)	(1,0)	(1,0)	(1,0)	(1,0)	(1,0)	
L1D 61>	(-62,121)	(0,58)	(-53,1)	(1,12)	(-40,27)	(-8,1)	(-69,14)	(-25,35)	(-61,0)	(-18,82)	(-57,20)	(-11,3)	(-1,0)	(-60,2)	(-47,1)	(1,0)	
L1D 62>	(4,5)	(5,4)	(-73,15)	(-74,21)	(-63,30)	(-62,105)	(-41,16)	(-44,122)	(-19,1)	(-58,1)	(-47,13)	(1,9)	(-11,6)	(-53,1)	(6,2)	(2,2)	
L1D 63>	(41,2)	(-47,15)	(2,2)	(49,1)	(-45,2)	(1,1)	(-74,2)	(-44,64)	(-9,63)	(54,3)	(-5,7)	(-4,5)	(45,1)	(-72,1)	(50,3)	(-145,1)	
L1D 64>	(-33,4)	(0,4)	(-5,1)	(1,3)	(1,0)	(1,0)	(1,0)	(1,0)	(1,0)	(1,0)	(1,0)	(1,0)	(1,0)	(1,0)	(1,0)	(1,0)	
L1D 65>	(-67,66)	(-70,2)	(1,0)	(1,0)	(1,0)	(1,0)	(1,0)	(1,0)	(1,0)	(1,0)	(1,0)	(1,0)	(1,0)	(1,0)	(1,0)	(1,0)	
L1D 66>	(-42,1)	(-63,1)	(4,29)	(-68,24)	(-70,97)	(-67,2)	(-2,0)	(-77,0)	(1,0)	(1,0)	(1,0)	(1,0)	(1,0)	(1,0)	(1,0)	(1,0)	
L1D 67>	(13,75)	(-1,1)	(-68,0)	(4,2)	(-66,2)	(-67,0)	(1,0)	(-58,3)	(-54,0)	(-51,0)	(-44,1)	(-25,0)	(-4,1)	(50,0)	(1,0)	(1,0)	
L1D 68>	(7,75)	(-1,0)	(-67,10)	(5,0)	(1,0)	(-62,4)	(-5,1)	(-72,0)	(1,0)	(1,0)	(1,0)	(1,0)	(1,0)	(1,0)	(1,0)	(1,0)	
L1D 69>	(-25,9)	(-69,1)	(-68,3)	(1,1)	(1,0)	(1,0)	(1,0)	(1,0)	(1,0)	(1,0)	(1,0)	(1,0)	(1,0)	(1,0)	(1,0)	(1,0)	
L1D 70>	(-26,1)	(-68,14)	(-1,1)	(-13,1)	(1,0)	(1,0)	(1,0)	(1,0)	(1,0)	(1,0)	(1,0)	(1,0)	(1,0)	(1,0)	(1,0)	(1,0)	
L1D 71>	(4,6)	(5,8)	(-62,1)	(41,1)	(40,1)	(9,87)	(-66,8)	(-70,4)	(2,9)	(1,13)	(-79,1)	(-68,1)	(3,1)	(1,0)	(1,0)	(1,0)	
L1D 72>	(4,9)	(-67,1)	(-14,7)	(-68,8)	(-66,2)	(-71,7)	(-70,0)	(-8,0)	(-79,0)	(45,0)	(-1,0)	(-6,0)	(-9,77)	(-4,11)	(-5,5)	(-13,4)	
L1D 73>	(5,1)	(0,1)	(-71,1)	(-77,1)	(-89,1)	(2,4)	(13,1)	(4,1)	(1,0)	(1,0)	(1,0)	(1,0)	(1,0)	(1,0)	(1,0)	(1,0)	
L1D 74>	(1,11)	(4,5)	(-36,2)	(5,6)	(-58,5)	(-56,1)	(1,0)	(1,0)	(1,0)	(1,0)	(1,0)	(1,0)	(1,0)	(1,0)	(1,0)	(1,0)	
L1D 75>	(1,10)	(0,5)	(-71,1)	(41,1)	(-121,1)	(5,10)	(-80,5)	(40,1)	(-40,3)	(-4,2)	(4,3)	(-58,7)	(1,0)	(1,0)	(1,0)	(1,0)	
L1D 76>	(4,49)	(-8,6)	(-36,8)	(-74,1)	(-201,2)	(-120,1)	(1,6)	(13,12)	(-4,79)	(-9,5)	(40,10)	(41,9)	(-35,1)	(9,3)	(5,10)	(-41,2)	
L1D 77>	(-5,37)	(-8,127)	(1,1)	(-9,2)	(3,1)	(-39,6)	(-40,1)	(-79,12)	(2,4)	(-38,1)	(5,0)	(40,0)	(-36,0)	(-81,2)	(4,4)	(-1,1)	
L1D 78>	(-77,0)	(7,2)	(-159,1)	(-82,0)	(4,6)	(-78,1)	(-1,1)	(-146,1)	(-81,1)	(6,118)	(-39,4)	(2,3)	(-40,1)	(-79,1)	(-6,0)	(0,1)	
L1D 79>	(4,76)	(40,0)	(41,0)	(-78,25)	(-81,1)	(1,4)	(-8,0)	(81,1)	(-39,0)	(1,0)	(1,0)	(1,0)	(1,0)	(1,0)	(1,0)	(1,0)	
L1D 80>	(-4,6)	(4,19)	(-90,1)	(-84,1)	(1,5)	(-3,10)	(41,17)	(2,8)	(-8,12)	(-81,11)	(-85,2)	(-72,1)	(-1,8)	(-39,1)	(-41,4)	(9,3)	
L1D 81>	(-8,9)	(6,34)	(-41,33)	(-11,83)	(-13,86)	(-40,23)	(-202,2)	(42,0)	(-1,1)	(-3,6)	(40,23)	(41,39)	(-81,3)	(17,34)	(-9,1)	(-4,8)	
L1D 82>	(84,0)	(1,2)	(-1,7)	(12,64)	(9,1)	(0,0)	(-81,0)	(41,4)	(-41,2)	(-42,7)	(42,4)	(-79,1)	(-123,2)	(-9,36)	(83,4)	(-124,4)	
L1D 83>	(-2,75)	(0,4)	(-82,1)	(1,2)	(40,4)	(42,2)	(-126,1)	(-1,4)	(4,2)	(-43,6)	(-84,1)	(-166,2)	(-41,0)	(-124,4)	(-42,19)	(-125,8)	
L1D 84>	(-2,55)	(-3,78)	(4,0)	(-323,1)	(81,1)	(-42,0)	(-44,0)	(41,15)	(5,0)	(-40,0)	(-8,0)	(-81,0)	(9,0)	(1,0)	(1,0)	(1,0)	
L1D 85>	(4,17)	(0,5)	(1,20)	(40,118)	(-79,25)	(-44,2)	(-82,15)	(-81,15)	(-41,7)	(41,18)	(-9,3)	(-45,2)	(-2,4)	(-78,3)	(-122,1)	(-1,1)	
L1D 86>	(1,2)	(-84,2)	(-14,12)	(-18,3)	(41,2)	(-45,4)	(-2,4)	(40,4)	(1,0)	(1,0)	(1,0)	(1,0)	(1,0)	(1,0)	(1,0)	(1,0)	
L1D 87>	(2,11)	(-66,94)	(-86,1)	(-84,1)	(-68,1)	(-71,11)	(1,1)	(1,0)	(1,0)	(1,0)	(1,0)	(1,0)	(1,0)	(1,0)	(1,0)	(1,0)	
L1D 88>	(5,1)	(-44,1)	(-40,4)	(1,1)	(-85,1)	(-45,1)	(-124,1)	(1,0)	(1,0)	(1,0)	(1,0)	(1,0)	(1,0)	(1,0)	(1,0)	(1,0)	
L1D 89>	(-1,1)	(-84,1)	(5,4)	(4,9)	(-82,1)	(2,15)	(-14,4)	(-68,1)	(41,5)	(-77,4)	(-103,1)	(-121,2)	(9,3)	(-40,1)	(40,4)	(-76,3)	
L1D 90>	(103,1)	(-66,46)	(-71,5)	(-68,11)	(45,103)	(-139,3)	(-50,21)	(-49,26)	(-94,33)	(54,4)	(95,9)	(-95,35)	(94,11)	(2,0)	(4,2)	(104,1)	
L1D 91>	(0,1)	(4,9)	(1,0)	(1,0)	(1,0)	(1,0)	(1,0)	(1,0)	(1,0)	(1,0)	(1,0)	(1,0)	(1,0)	(1,0)	(1,0)	(1,0)	
L1D 92>	(4,4)	(9,27)	(-2,2)	(1,0)	(1,0)	(1,0)	(1,0)	(1,0)	(1,0)	(1,0)	(1,0)	(1,0)	(1,0)	(1,0)	(1,0)	(1,0)	
L1D 93>	(-2,3)	(1,2)	(-95,10)	(-84,22)	(4,12)	(5,6)	(-3,118)	(-4,121)	(3,0)	(9,2)	(-1,1)	(-40,0)	(1,0)	(1,0)	(1,0)	(1,0)	
L1D 94>	(4,16)	(-92,3)	(-2,15)	(-77,13)	(-86,2)	(50,9)	(-79,2)	(-4,77)	(54,0)	(-54,31)	(-49,5)	(-189,14)	(-144,18)	(99,0)	(9,3)	(-198,1)	
L1D 95>	(-88,18)	(-99,8)	(-103,14)	(-5,65)	(-50,7)	(-144,3)	(49,5)	(-54,3)	(54,1)	(-149,1)	(103,1)	(99,1)	(1,0)	(1,0)	(1,0)	(1,0)	
L1D 96>	(4,22)	(-2,66)	(0,4)	(-126,1)	(-93,26)	(-96,2)	(-92,25)	(1,2)	(1,0)	(1,0)	(1,0)	(1,0)	(1,0)	(1,0)	(1,0)	(1,0)	
L1D 97>	(2,1)	(-111,6)	(4,1)	(1,0)	(1,0)	(1,0)	(1,0)	(1,0)	(1,0)	(1,0)	(1,0)	(1,0)	(1,0)	(1,0)	(1,0)	(1,0)	
L1D 98>	(-98,1)	(4,27)	(-78,7)	(1,0)	(1,0)	(1,0)	(1,0)	(1,0)	(1,0)	(1,0)	(1,0)	(1,0)	(1,0)	(1,0)	(1,0)	(1,0)	
L1D 99>	(9,2)	(-49,6)	(-103,5)	(-4,8)	(-153,7)	(-58,4)	(-54,4)	(0,4)	(-5,5)	(45,9)	(54,2)	(-88,1)	(-104,1)	(1,0)	(1,0)	(1,0)	
L1D 100>	(-12,2)	(1,0)	(1,0)	(1,0)	(1,0)	(1,0)	(1,0)	(1,0)	(1,0)	(1,0)	(1,0)	(1,0)	(1,0)	(1,0)	(1,0)	(1,0)	
L1D 101>	(4,1)	(1,0)	(1,0)	(1,0)	(1,0)	(1,0)	(1,0)	(1,0)	(1,0)	(1,0)	(1,0)	(1,0)	(1,0)	(1,0)	(1,0)	(1,0)	
L1D 102>	(5,1)	(1,0)	(1,0)	(1,0)	(1,0)	(1,0)	(1,0)	(1,0)	(1,0)	(1,0)	(1,0)	(1,0)	(1,0)	(1,0)	(1,0)	(1,0)	
L1D 103>	(-111,2)	(8,21)	(-102,1)	(-4,6)	(-153,5)	(54,3)	(41,2)	(-198,2)	(5,1)	(-54,1)	(-94,1)	(1,0)	(1,0)	(1,0)	(1,0)	(1,0)	
L1D 104>	(-5,7)	(-153,7)	(54,2)	(-198,4)	(-50,1)	(1,0)	(1,0)	(1,0)	(1,0)	(1,0)	(1,0)	(1,0)	(1,0)	(1,0)	(1,0)	(1,0)	
L1D 105>	(27,2)	(36,4)	(18,3)	(23,2)	(32,2)	(1,0)	(1,0)	(1,0)	(1,0)	(1,0)	(1,0)	(1,0)	(1,0)	(1,0)	(1,0)	(1,0)	
L1D 106>	(-103,1)	(23,1)	(14,2)	(13,2)	(1,0)	(1,0)	(1,0)	(1,0)	(1,0)	(1,0)	(1,0)	(1,0)	(1,0)	(1,0)	(1,0)	(1,0)	
L1D 107>	(31,0)	(-8,68)	(-2,5)	(13,1)	(22,0)	(27,1)	(-1,0)	(-98,1)	(5,1)	(4,0)	(1,0)	(1,0)	(1,0)	(1,0)	(1,0)	(1,0)	
L1D 108>	(5,2)	(14,3)	(18,6)	(23,5)	(27,5)	(32,8)	(36,9)	(0,5)	(-110,9)	(13,4)	(-4,2)	(4,1)	(1,0)	(1,0)	(1,0)	(1,0)	
L1D 109>	(4,2)	(14,7)	(19,6)	(23,4)	(28,6)	(-111,12)	(31,1)	(0,3)	(32,2)	(1,0)	(1,0)	(1,0)	(1,0)	(1,0)	(1,0)	(1,0)	
L1D 110>	(4,4)	(-111,2)	(18,3)	(22,1)	(27,5)	(31,9)	(36,2)	(23,1)	(9,5)	(13,3)	(-1,1)	(1,0)	(1,0)	(1,0)	(1,0)	(1,0)	
L1D 111>	(8,80)	(18,1)	(14,1)	(0,0)	(-113,1)	(32,0)	(-105,1)	(41,0)	(36,0)	(-102,0)	(13,0)	(27,1)	(-114,0)	(23,0)	(5,0)	(1,0)	
L1D 112>	(41,7)	(5,2)	(0,15)	(19,3)	(28,4)	(-106,9)	(36,5)	(-103,1)	(14,3)	(-114,5)	(23,3)	(9,5)	(-117,2)	(4,1)	(32,3)	(1,5)	
L1D 113>	(13,1)	(27,2)	(22,2)	(9,2)	(-5,1)	(5,5)	(18,1)	(4,1)	(1,0)	(1,0)	(1,0)	(1,0)	(1,0)	(1,0)	(1,0)	(1,0)	
L1D 114>	(5,1)	(10,92)	(14,10)	(18,7)	(23,3)	(27,4)	(32,1)	(-116,9)	(31,0)	(-108,1)	(-117,1)	(0,5)	(9,1)	(1,0)	(1,0)	(1,0)	
L1D 115>	(1,7)	(0,10)	(14,6)	(13,7)	(-118,1)	(23,4)	(-117,7)	(-109,4)	(32,1)	(9,3)	(4,3)	(-81,2)	(5,1)	(27,1)	(28,1)	(1,0)	
L1D 116>	(0,6)	(5,38)	(9,5)	(-4,5)	(-81,3)	(13,3)	(27,6)	(14,5)	(40,2)	(22,2)	(1,7)	(4,15)	(41,13)	(18,2)	(-1,3)	(6,2)	
L1D 117>	(-77,4)	(-5,4)	(5,8)	(-41,6)	(-76,4)	(40,1)	(-4,15)	(1,25)	(0,11)	(14,10)	(-119,5)	(23,5)	(27,8)	(13,4)	(9,7)	(-111,7)	
L1D 118>	(9,5)	(-1,1)	(0,2)	(15,7)	(19,9)	(24,6)	(-118,6)	(23,14)	(14,15)	(18,10)	(-120,11)	(28,6)	(13,4)	(1,6)	(10,3)	(-5,4)	
L1D 119>	(-8,26)	(-18,101)	(1,3)	(5,2)	(13,8)	(18,17)	(22,9)	(-119,4)	(23,6)	(14,7)	(9,2)	(27,0)	(0,0)	(-4,0)	(-6,0)	(1,0)	
L1D 120>	(-81,1)	(41,3)	(5,50)	(-4,5)	(-114,8)	(23,16)	(18,23)	(13,13)	(22,10)	(-120,5)	(14,17)	(19,3)	(10,4)	(9,2)	(-122,6)	(27,4)	
L1D 121>	(1,74)	(0,5)	(4,23)	(9,126)	(41,4)	(5,9)	(-8,6)	(-4,20)	(-121,12)	(-3,50)	(-115,4)	(13,9)	(18,8)	(22,8)	(-367,1)	(23,3)	
L1D 122>	(1,7)	(-82,3)	(41,2)	(-1,4)	(0,7)	(3,2)	(-121,23)	(5,7)	(-122,2)	(40,10)	(13,6)	(-9,6)	(-81,3)	(2,4)	(42,1)	(-4,54)	
L1D 123>	(-123,17)	(-117,4)	(-83,62)	(1,17)	(-125,1)	(8,4)	(3,12)	(0,9)	(-87,5)	(14,23)	(9,33)	(13,12)	(18,35)	(10,7)	(19,8)	(5,7)	
L1D 124>	(4,11)	(9,37)	(-10,80)	(0,5)	(5,32)	(-1,16)	(-118,8)	(-124,14)	(18,24)	(13,19)	(14,10)	(-165,18)	(-84,16)	(2,6)	(-42,2)	(-83,92)	
L1D 125>	(-84,2)	(-125,3)	(1,5)	(40,89)	(-42,1)	(41,73)	(-121,1)	(-40,1)	(5,13)	(-81,4)	(-9,3)	(13,2)	(9,6)	(-166,1)	(18,4)	(14,1)	
L1D 126>	(0,4)	(14,3)	(-128,3)	(9,90)	(1,5)	(40,2)	(-120,1)	(-9,2)	(-6,1)	(-84,2)	(-127,1)	(-85,2)	(24,1)	(-122,11)	(4,1)	(18,2)	
L1D 127>	(-124,1)	(-127,14)	(10,11)	(9,24)	(14,19)	(-9,13)	(1,4)	(-5,6)	(-4,5)	(-15,5)	(0,1)	(19,4)	(-122,4)	(-129,4)	(-10,16)	(3,24)	
L1D 128>	(8,22)	(-129,2)	(9,36)	(-131,4)	(0,7)	(14,17)	(13,28)	(-1,6)	(-128,16)	(4,9)	(-136,1)	(-9,11)	(-5,3)	(5,1)	(-10,1)	(-4,3)	
L1D 129>	(5,10)	(-10,2)	(-123,3)	(9,42)	(14,16)	(13,9)	(10,6)	(-9,5)	(-129,6)	(-5,4)	(-19,2)	(0,1)	(41,2)	(40,5)	(-117,2)	(-130,3)	
L1D 130>	(41,1)	(40,8)	(1,1)	(4,25)	(-3,3)	(5,6)	(-132,8)	(-14,3)	(-10,5)	(-124,1)	(18,1)	(-130,10)	(9,20)	(13,11)	(8,6)	(-1,4)	
L1D 131>	(1,8)	(9,13)	(-14,2)	(5,4)	(14,3)	(4,8)	(13,6)	(8,1)	(-131,5)	(-10,1)	(-126,1)	(-141,1)	(0,1)	(1,0)	(1,0)	(1,0)	
L1D 132>	(-133,8)	(0,5)	(5,14)	(-13,3)	(10,4)	(9,4)	(14,4)	(-126,2)	(-138,17)	(1,20)	(-18,2)	(-8,2)	(-4,4)	(-132,2)	(-127,1)	(4,1)	
L1D 133>	(13,2)	(-14,2)	(-10,2)	(3,7)	(-133,1)	(-19,3)	(-139,10)	(-23,4)	(-9,1)	(10,1)	(-135,2)	(-15,1)	(14,1)	(-134,2)	(-151,1)	(-24,1)	
L1D 134>	(4,22)	(23,2)	(40,1)	(-4,1)	(-140,6)	(5,10)	(-9,2)	(9,12)	(-19,1)	(-23,2)	(-14,3)	(22,1)	(27,1)	(31,1)	(-147,1)	(-148,2)	
[...]
L1D 455>	(1,0)	(1,0)	(1,0)	(1,0)	(1,0)	(1,0)	(1,0)	(1,0)	(1,0)	(1,0)	(1,0)	(1,0)	(1,0)	(1,0)	(1,0)	(1,0)	
L1D 456>	(1,0)	(1,0)	(1,0)	(1,0)	(1,0)	(1,0)	(1,0)	(1,0)	(1,0)	(1,0)	(1,0)	(1,0)	(1,0)	(1,0)	(1,0)	(1,0)	
L1D 457>	(1,0)	(1,0)	(1,0)	(1,0)	(1,0)	(1,0)	(1,0)	(1,0)	(1,0)	(1,0)	(1,0)	(1,0)	(1,0)	(1,0)	(1,0)	(1,0)	
L1D 458>	(1,0)	(1,0)	(1,0)	(1,0)	(1,0)	(1,0)	(1,0)	(1,0)	(1,0)	(1,0)	(1,0)	(1,0)	(1,0)	(1,0)	(1,0)	(1,0)	
L1D 459>	(1,0)	(1,0)	(1,0)	(1,0)	(1,0)	(1,0)	(1,0)	(1,0)	(1,0)	(1,0)	(1,0)	(1,0)	(1,0)	(1,0)	(1,0)	(1,0)	
L1D 460>	(1,0)	(1,0)	(1,0)	(1,0)	(1,0)	(1,0)	(1,0)	(1,0)	(1,0)	(1,0)	(1,0)	(1,0)	(1,0)	(1,0)	(1,0)	(1,0)	
L1D 461>	(1,0)	(1,0)	(1,0)	(1,0)	(1,0)	(1,0)	(1,0)	(1,0)	(1,0)	(1,0)	(1,0)	(1,0)	(1,0)	(1,0)	(1,0)	(1,0)	
L1D 462>	(1,0)	(1,0)	(1,0)	(1,0)	(1,0)	(1,0)	(1,0)	(1,0)	(1,0)	(1,0)	(1,0)	(1,0)	(1,0)	(1,0)	(1,0)	(1,0)	
L1D 463>	(1,0)	(1,0)	(1,0)	(1,0)	(1,0)	(1,0)	(1,0)	(1,0)	(1,0)	(1,0)	(1,0)	(1,0)	(1,0)	(1,0)	(1,0)	(1,0)	
L1D 464>	(1,0)	(1,0)	(1,0)	(1,0)	(1,0)	(1,0)	(1,0)	(1,0)	(1,0)	(1,0)	(1,0)	(1,0)	(1,0)	(1,0)	(1,0)	(1,0)	
L1D 465>	(1,0)	(1,0)	(1,0)	(1,0)	(1,0)	(1,0)	(1,0)	(1,0)	(1,0)	(1,0)	(1,0)	(1,0)	(1,0)	(1,0)	(1,0)	(1,0)	
L1D 466>	(1,0)	(1,0)	(1,0)	(1,0)	(1,0)	(1,0)	(1,0)	(1,0)	(1,0)	(1,0)	(1,0)	(1,0)	(1,0)	(1,0)	(1,0)	(1,0)	
L1D 467>	(1,0)	(1,0)	(1,0)	(1,0)	(1,0)	(1,0)	(1,0)	(1,0)	(1,0)	(1,0)	(1,0)	(1,0)	(1,0)	(1,0)	(1,0)	(1,0)	
L1D 468>	(1,0)	(1,0)	(1,0)	(1,0)	(1,0)	(1,0)	(1,0)	(1,0)	(1,0)	(1,0)	(1,0)	(1,0)	(1,0)	(1,0)	(1,0)	(1,0)	
L1D 469>	(1,0)	(1,0)	(1,0)	(1,0)	(1,0)	(1,0)	(1,0)	(1,0)	(1,0)	(1,0)	(1,0)	(1,0)	(1,0)	(1,0)	(1,0)	(1,0)	
L1D 470>	(1,0)	(1,0)	(1,0)	(1,0)	(1,0)	(1,0)	(1,0)	(1,0)	(1,0)	(1,0)	(1,0)	(1,0)	(1,0)	(1,0)	(1,0)	(1,0)	
L1D 471>	(1,0)	(1,0)	(1,0)	(1,0)	(1,0)	(1,0)	(1,0)	(1,0)	(1,0)	(1,0)	(1,0)	(1,0)	(1,0)	(1,0)	(1,0)	(1,0)	
L1D 472>	(1,0)	(1,0)	(1,0)	(1,0)	(1,0)	(1,0)	(1,0)	(1,0)	(1,0)	(1,0)	(1,0)	(1,0)	(1,0)	(1,0)	(1,0)	(1,0)	
L1D 473>	(1,0)	(1,0)	(1,0)	(1,0)	(1,0)	(1,0)	(1,0)	(1,0)	(1,0)	(1,0)	(1,0)	(1,0)	(1,0)	(1,0)	(1,0)	(1,0)	
L1D 474>	(1,0)	(1,0)	(1,0)	(1,0)	(1,0)	(1,0)	(1,0)	(1,0)	(1,0)	(1,0)	(1,0)	(1,0)	(1,0)	(1,0)	(1,0)	(1,0)	
L1D 475>	(1,0)	(1,0)	(1,0)	(1,0)	(1,0)	(1,0)	(1,0)	(1,0)	(1,0)	(1,0)	(1,0)	(1,0)	(1,0)	(1,0)	(1,0)	(1,0)	
L1D 476>	(1,0)	(1,0)	(1,0)	(1,0)	(1,0)	(1,0)	(1,0)	(1,0)	(1,0)	(1,0)	(1,0)	(1,0)	(1,0)	(1,0)	(1,0)	(1,0)	
L1D 477>	(1,0)	(1,0)	(1,0)	(1,0)	(1,0)	(1,0)	(1,0)	(1,0)	(1,0)	(1,0)	(1,0)	(1,0)	(1,0)	(1,0)	(1,0)	(1,0)	
L1D 478>	(1,0)	(1,0)	(1,0)	(1,0)	(1,0)	(1,0)	(1,0)	(1,0)	(1,0)	(1,0)	(1,0)	(1,0)	(1,0)	(1,0)	(1,0)	(1,0)	
L1D 479>	(1,0)	(1,0)	(1,0)	(1,0)	(1,0)	(1,0)	(1,0)	(1,0)	(1,0)	(1,0)	(1,0)	(1,0)	(1,0)	(1,0)	(1,0)	(1,0)	
L1D 480>	(1,0)	(1,0)	(1,0)	(1,0)	(1,0)	(1,0)	(1,0)	(1,0)	(1,0)	(1,0)	(1,0)	(1,0)	(1,0)	(1,0)	(1,0)	(1,0)	
L1D 481>	(1,0)	(1,0)	(1,0)	(1,0)	(1,0)	(1,0)	(1,0)	(1,0)	(1,0)	(1,0)	(1,0)	(1,0)	(1,0)	(1,0)	(1,0)	(1,0)	
L1D 482>	(1,0)	(1,0)	(1,0)	(1,0)	(1,0)	(1,0)	(1,0)	(1,0)	(1,0)	(1,0)	(1,0)	(1,0)	(1,0)	(1,0)	(1,0)	(1,0)	
L1D 483>	(1,0)	(1,0)	(1,0)	(1,0)	(1,0)	(1,0)	(1,0)	(1,0)	(1,0)	(1,0)	(1,0)	(1,0)	(1,0)	(1,0)	(1,0)	(1,0)	
L1D 484>	(1,0)	(1,0)	(1,0)	(1,0)	(1,0)	(1,0)	(1,0)	(1,0)	(1,0)	(1,0)	(1,0)	(1,0)	(1,0)	(1,0)	(1,0)	(1,0)	
L1D 485>	(1,0)	(1,0)	(1,0)	(1,0)	(1,0)	(1,0)	(1,0)	(1,0)	(1,0)	(1,0)	(1,0)	(1,0)	(1,0)	(1,0)	(1,0)	(1,0)	
L1D 486>	(1,0)	(1,0)	(1,0)	(1,0)	(1,0)	(1,0)	(1,0)	(1,0)	(1,0)	(1,0)	(1,0)	(1,0)	(1,0)	(1,0)	(1,0)	(1,0)	
L1D 487>	(1,0)	(1,0)	(1,0)	(1,0)	(1,0)	(1,0)	(1,0)	(1,0)	(1,0)	(1,0)	(1,0)	(1,0)	(1,0)	(1,0)	(1,0)	(1,0)	
L1D 488>	(1,0)	(1,0)	(1,0)	(1,0)	(1,0)	(1,0)	(1,0)	(1,0)	(1,0)	(1,0)	(1,0)	(1,0)	(1,0)	(1,0)	(1,0)	(1,0)	
L1D 489>	(1,0)	(1,0)	(1,0)	(1,0)	(1,0)	(1,0)	(1,0)	(1,0)	(1,0)	(1,0)	(1,0)	(1,0)	(1,0)	(1,0)	(1,0)	(1,0)	
L1D 490>	(1,0)	(1,0)	(1,0)	(1,0)	(1,0)	(1,0)	(1,0)	(1,0)	(1,0)	(1,0)	(1,0)	(1,0)	(1,0)	(1,0)	(1,0)	(1,0)	
L1D 491>	(1,0)	(1,0)	(1,0)	(1,0)	(1,0)	(1,0)	(1,0)	(1,0)	(1,0)	(1,0)	(1,0)	(1,0)	(1,0)	(1,0)	(1,0)	(1,0)	
L1D 492>	(1,0)	(1,0)	(1,0)	(1,0)	(1,0)	(1,0)	(1,0)	(1,0)	(1,0)	(1,0)	(1,0)	(1,0)	(1,0)	(1,0)	(1,0)	(1,0)	
L1D 493>	(1,0)	(1,0)	(1,0)	(1,0)	(1,0)	(1,0)	(1,0)	(1,0)	(1,0)	(1,0)	(1,0)	(1,0)	(1,0)	(1,0)	(1,0)	(1,0)	
L1D 494>	(1,0)	(1,0)	(1,0)	(1,0)	(1,0)	(1,0)	(1,0)	(1,0)	(1,0)	(1,0)	(1,0)	(1,0)	(1,0)	(1,0)	(1,0)	(1,0)	
L1D 495>	(1,0)	(1,0)	(1,0)	(1,0)	(1,0)	(1,0)	(1,0)	(1,0)	(1,0)	(1,0)	(1,0)	(1,0)	(1,0)	(1,0)	(1,0)	(1,0)	
L1D 496>	(1,0)	(1,0)	(1,0)	(1,0)	(1,0)	(1,0)	(1,0)	(1,0)	(1,0)	(1,0)	(1,0)	(1,0)	(1,0)	(1,0)	(1,0)	(1,0)	
L1D 497>	(1,0)	(1,0)	(1,0)	(1,0)	(1,0)	(1,0)	(1,0)	(1,0)	(1,0)	(1,0)	(1,0)	(1,0)	(1,0)	(1,0)	(1,0)	(1,0)	
L1D 498>	(1,0)	(1,0)	(1,0)	(1,0)	(1,0)	(1,0)	(1,0)	(1,0)	(1,0)	(1,0)	(1,0)	(1,0)	(1,0)	(1,0)	(1,0)	(1,0)	
L1D 499>	(-367,1)	(1,0)	(1,0)	(1,0)	(1,0)	(1,0)	(1,0)	(1,0)	(1,0)	(1,0)	(1,0)	(1,0)	(1,0)	(1,0)	(1,0)	(1,0)	
L1D 500>	(1,0)	(1,0)	(1,0)	(1,0)	(1,0)	(1,0)	(1,0)	(1,0)	(1,0)	(1,0)	(1,0)	(1,0)	(1,0)	(1,0)	(1,0)	(1,0)	
L1D 501>	(1,0)	(1,0)	(1,0)	(1,0)	(1,0)	(1,0)	(1,0)	(1,0)	(1,0)	(1,0)	(1,0)	(1,0)	(1,0)	(1,0)	(1,0)	(1,0)	
L1D 502>	(1,0)	(1,0)	(1,0)	(1,0)	(1,0)	(1,0)	(1,0)	(1,0)	(1,0)	(1,0)	(1,0)	(1,0)	(1,0)	(1,0)	(1,0)	(1,0)	
L1D 503>	(1,0)	(1,0)	(1,0)	(1,0)	(1,0)	(1,0)	(1,0)	(1,0)	(1,0)	(1,0)	(1,0)	(1,0)	(1,0)	(1,0)	(1,0)	(1,0)	
L1D 504>	(1,0)	(1,0)	(1,0)	(1,0)	(1,0)	(1,0)	(1,0)	(1,0)	(1,0)	(1,0)	(1,0)	(1,0)	(1,0)	(1,0)	(1,0)	(1,0)	
L1D 505>	(1,0)	(1,0)	(1,0)	(1,0)	(1,0)	(1,0)	(1,0)	(1,0)	(1,0)	(1,0)	(1,0)	(1,0)	(1,0)	(1,0)	(1,0)	(1,0)	
L1D 506>	(1,0)	(1,0)	(1,0)	(1,0)	(1,0)	(1,0)	(1,0)	(1,0)	(1,0)	(1,0)	(1,0)	(1,0)	(1,0)	(1,0)	(1,0)	(1,0)	
L1D 507>	(1,0)	(1,0)	(1,0)	(1,0)	(1,0)	(1,0)	(1,0)	(1,0)	(1,0)	(1,0)	(1,0)	(1,0)	(1,0)	(1,0)	(1,0)	(1,0)	
L1D 508>	(1,0)	(1,0)	(1,0)	(1,0)	(1,0)	(1,0)	(1,0)	(1,0)	(1,0)	(1,0)	(1,0)	(1,0)	(1,0)	(1,0)	(1,0)	(1,0)	
L1D 509>	(1,0)	(1,0)	(1,0)	(1,0)	(1,0)	(1,0)	(1,0)	(1,0)	(1,0)	(1,0)	(1,0)	(1,0)	(1,0)	(1,0)	(1,0)	(1,0)	
L1D 510>	(1,0)	(1,0)	(1,0)	(1,0)	(1,0)	(1,0)	(1,0)	(1,0)	(1,0)	(1,0)	(1,0)	(1,0)	(1,0)	(1,0)	(1,0)	(1,0)	
L1D 511>	(1,0)	(1,0)	(1,0)	(1,0)	(1,0)	(1,0)	(1,0)	(1,0)	(1,0)	(1,0)	(1,0)	(1,0)	(1,0)	(1,0)	(1,0)	(1,0)	

L2C -64>	(7,3)	(1,31)	(2,4)	(-1,3)	(4,2)	(-5,3)	(-26,2)	(28,1)	(-37,1)	(24,1)	(-2,1)	(-42,1)	(8,1)	(47,1)	(26,1)	(5,1)	
L2C -63>	(1,8)	(1,0)	(1,0)	(1,0)	(1,0)	(1,0)	(1,0)	(1,0)	(1,0)	(1,0)	(1,0)	(1,0)	(1,0)	(1,0)	(1,0)	(1,0)	
L2C -62>	(1,4)	(1,0)	(1,0)	(1,0)	(1,0)	(1,0)	(1,0)	(1,0)	(1,0)	(1,0)	(1,0)	(1,0)	(1,0)	(1,0)	(1,0)	(1,0)	
L2C -61>	(1,1)	(1,0)	(1,0)	(1,0)	(1,0)	(1,0)	(1,0)	(1,0)	(1,0)	(1,0)	(1,0)	(1,0)	(1,0)	(1,0)	(1,0)	(1,0)	
L2C -60>	(1,0)	(1,0)	(1,0)	(1,0)	(1,0)	(1,0)	(1,0)	(1,0)	(1,0)	(1,0)	(1,0)	(1,0)	(1,0)	(1,0)	(1,0)	(1,0)	
L2C -59>	(1,0)	(1,0)	(1,0)	(1,0)	(1,0)	(1,0)	(1,0)	(1,0)	(1,0)	(1,0)	(1,0)	(1,0)	(1,0)	(1,0)	(1,0)	(1,0)	
L2C -58>	(1,1)	(1,0)	(1,0)	(1,0)	(1,0)	(1,0)	(1,0)	(1,0)	(1,0)	(1,0)	(1,0)	(1,0)	(1,0)	(1,0)	(1,0)	(1,0)	
L2C -57>	(1,1)	(1,0)	(1,0)	(1,0)	(1,0)	(1,0)	(1,0)	(1,0)	(1,0)	(1,0)	(1,0)	(1,0)	(1,0)	(1,0)	(1,0)	(1,0)	
L2C -56>	(1,4)	(1,0)	(1,0)	(1,0)	(1,0)	(1,0)	(1,0)	(1,0)	(1,0)	(1,0)	(1,0)	(1,0)	(1,0)	(1,0)	(1,0)	(1,0)	
L2C -55>	(1,7)	(56,1)	(1,0)	(1,0)	(1,0)	(1,0)	(1,0)	(1,0)	(1,0)	(1,0)	(1,0)	(1,0)	(1,0)	(1,0)	(1,0)	(1,0)	
L2C -54>	(1,3)	(-8,1)	(1,0)	(1,0)	(1,0)	(1,0)	(1,0)	(1,0)	(1,0)	(1,0)	(1,0)	(1,0)	(1,0)	(1,0)	(1,0)	(1,0)	
L2C -53>	(1,0)	(1,0)	(1,0)	(1,0)	(1,0)	(1,0)	(1,0)	(1,0)	(1,0)	(1,0)	(1,0)	(1,0)	(1,0)	(1,0)	(1,0)	(1,0)	
L2C -52>	(1,0)	(1,0)	(1,0)	(1,0)	(1,0)	(1,0)	(1,0)	(1,0)	(1,0)	(1,0)	(1,0)	(1,0)	(1,0)	(1,0)	(1,0)	(1,0)	
L2C -51>	(1,1)	(1,0)	(1,0)	(1,0)	(1,0)	(1,0)	(1,0)	(1,0)	(1,0)	(1,0)	(1,0)	(1,0)	(1,0)	(1,0)	(1,0)	(1,0)	
L2C -50>	(1,3)	(1,0)	(1,0)	(1,0)	(1,0)	(1,0)	(1,0)	(1,0)	(1,0)	(1,0)	(1,0)	(1,0)	(1,0)	(1,0)	(1,0)	(1,0)	
L2C -49>	(1,0)	(1,0)	(1,0)	(1,0)	(1,0)	(1,0)	(1,0)	(1,0)	(1,0)	(1,0)	(1,0)	(1,0)	(1,0)	(1,0)	(1,0)	(1,0)	
L2C -48>	(1,4)	(1,0)	(1,0)	(1,0)	(1,0)	(1,0)	(1,0)	(1,0)	(1,0)	(1,0)	(1,0)	(1,0)	(1,0)	(1,0)	(1,0)	(1,0)	
L2C -47>	(34,2)	(48,1)	(1,2)	(53,1)	(1,0)	(1,0)	(1,0)	(1,0)	(1,0)	(1,0)	(1,0)	(1,0)	(1,0)	(1,0)	(1,0)	(1,0)	
L2C -46>	(1,4)	(1,0)	(1,0)	(1,0)	(1,0)	(1,0)	(1,0)	(1,0)	(1,0)	(1,0)	(1,0)	(1,0)	(1,0)	(1,0)	(1,0)	(1,0)	
L2C -45>	(5,1)	(1,2)	(1,0)	(1,0)	(1,0)	(1,0)	(1,0)	(1,0)	(1,0)	(1,0)	(1,0)	(1,0)	(1,0)	(1,0)	(1,0)	(1,0)	
L2C -44>	(1,5)	(1,0)	(1,0)	(1,0)	(1,0)	(1,0)	(1,0)	(1,0)	(1,0)	(1,0)	(1,0)	(1,0)	(1,0)	(1,0)	(1,0)	(1,0)	
L2C -43>	(1,4)	(1,0)	(1,0)	(1,0)	(1,0)	(1,0)	(1,0)	(1,0)	(1,0)	(1,0)	(1,0)	(1,0)	(1,0)	(1,0)	(1,0)	(1,0)	
L2C -42>	(1,9)	(4,1)	(5,1)	(1,0)	(1,0)	(1,0)	(1,0)	(1,0)	(1,0)	(1,0)	(1,0)	(1,0)	(1,0)	(1,0)	(1,0)	(1,0)	
L2C -41>	(1,0)	(1,0)	(1,0)	(1,0)	(1,0)	(1,0)	(1,0)	(1,0)	(1,0)	(1,0)	(1,0)	(1,0)	(1,0)	(1,0)	(1,0)	(1,0)	
L2C -40>	(1,0)	(1,0)	(1,0)	(1,0)	(1,0)	(1,0)	(1,0)	(1,0)	(1,0)	(1,0)	(1,0)	(1,0)	(1,0)	(1,0)	(1,0)	(1,0)	
L2C -39>	(2,2)	(1,0)	(1,0)	(1,0)	(1,0)	(1,0)	(1,0)	(1,0)	(1,0)	(1,0)	(1,0)	(1,0)	(1,0)	(1,0)	(1,0)	(1,0)	
L2C -38>	(1,0)	(1,0)	(1,0)	(1,0)	(1,0)	(1,0)	(1,0)	(1,0)	(1,0)	(1,0)	(1,0)	(1,0)	(1,0)	(1,0)	(1,0)	(1,0)	
L2C -37>	(38,1)	(1,3)	(1,0)	(1,0)	(1,0)	(1,0)	(1,0)	(1,0)	(1,0)	(1,0)	(1,0)	(1,0)	(1,0)	(1,0)	(1,0)	(1,0)	
L2C -36>	(1,1)	(1,0)	(1,0)	(1,0)	(1,0)	(1,0)	(1,0)	(1,0)	(1,0)	(1,0)	(1,0)	(1,0)	(1,0)	(1,0)	(1,0)	(1,0)	
L2C -35>	(1,0)	(1,0)	(1,0)	(1,0)	(1,0)	(1,0)	(1,0)	(1,0)	(1,0)	(1,0)	(1,0)	(1,0)	(1,0)	(1,0)	(1,0)	(1,0)	
L2C -34>	(1,4)	(1,0)	(1,0)	(1,0)	(1,0)	(1,0)	(1,0)	(1,0)	(1,0)	(1,0)	(1,0)	(1,0)	(1,0)	(1,0)	(1,0)	(1,0)	
L2C -33>	(1,4)	(1,0)	(1,0)	(1,0)	(1,0)	(1,0)	(1,0)	(1,0)	(1,0)	(1,0)	(1,0)	(1,0)	(1,0)	(1,0)	(1,0)	(1,0)	
L2C -32>	(27,1)	(1,5)	(1,0)	(1,0)	(1,0)	(1,0)	(1,0)	(1,0)	(1,0)	(1,0)	(1,0)	(1,0)	(1,0)	(1,0)	(1,0)	(1,0)	
L2C -31>	(1,7)	(1,0)	(1,0)	(1,0)	(1,0)	(1,0)	(1,0)	(1,0)	(1,0)	(1,0)	(1,0)	(1,0)	(1,0)	(1,0)	(1,0)	(1,0)	
L2C -30>	(1,5)	(1,0)	(1,0)	(1,0)	(1,0)	(1,0)	(1,0)	(1,0)	(1,0)	(1,0)	(1,0)	(1,0)	(1,0)	(1,0)	(1,0)	(1,0)	
L2C -29>	(1,6)	(5,1)	(1,0)	(1,0)	(1,0)	(1,0)	(1,0)	(1,0)	(1,0)	(1,0)	(1,0)	(1,0)	(1,0)	(1,0)	(1,0)	(1,0)	
L2C -28>	(1,4)	(-25,1)	(1,0)	(1,0)	(1,0)	(1,0)	(1,0)	(1,0)	(1,0)	(1,0)	(1,0)	(1,0)	(1,0)	(1,0)	(1,0)	(1,0)	
L2C -27>	(1,3)	(1,0)	(1,0)	(1,0)	(1,0)	(1,0)	(1,0)	(1,0)	(1,0)	(1,0)	(1,0)	(1,0)	(1,0)	(1,0)	(1,0)	(1,0)	
L2C -26>	(4,1)	(1,4)	(-1,1)	(2,3)	(1,0)	(1,0)	(1,0)	(1,0)	(1,0)	(1,0)	(1,0)	(1,0)	(1,0)	(1,0)	(1,0)	(1,0)	
L2C -25>	(1,3)	(1,0)	(1,0)	(1,0)	(1,0)	(1,0)	(1,0)	(1,0)	(1,0)	(1,0)	(1,0)	(1,0)	(1,0)	(1,0)	(1,0)	(1,0)	
L2C -24>	(-8,1)	(5,2)	(1,0)	(1,0)	(1,0)	(1,0)	(1,0)	(1,0)	(1,0)	(1,0)	(1,0)	(1,0)	(1,0)	(1,0)	(1,0)	(1,0)	
L2C -23>	(1,0)	(1,0)	(1,0)	(1,0)	(1,0)	(1,0)	(1,0)	(1,0)	(1,0)	(1,0)	(1,0)	(1,0)	(1,0)	(1,0)	(1,0)	(1,0)	
L2C -22>	(21,3)	(1,0)	(1,0)	(1,0)	(1,0)	(1,0)	(1,0)	(1,0)	(1,0)	(1,0)	(1,0)	(1,0)	(1,0)	(1,0)	(1,0)	(1,0)	
L2C -21>	(1,16)	(-5,1)	(7,1)	(1,0)	(1,0)	(1,0)	(1,0)	(1,0)	(1,0)	(1,0)	(1,0)	(1,0)	(1,0)	(1,0)	(1,0)	(1,0)	
L2C -20>	(1,8)	(1,0)	(1,0)	(1,0)	(1,0)	(1,0)	(1,0)	(1,0)	(1,0)	(1,0)	(1,0)	(1,0)	(1,0)	(1,0)	(1,0)	(1,0)	
L2C -19>	(1,9)	(1,0)	(1,0)	(1,0)	(1,0)	(1,0)	(1,0)	(1,0)	(1,0)	(1,0)	(1,0)	(1,0)	(1,0)	(1,0)	(1,0)	(1,0)	
L2C -18>	(1,11)	(1,0)	(1,0)	(1,0)	(1,0)	(1,0)	(1,0)	(1,0)	(1,0)	(1,0)	(1,0)	(1,0)	(1,0)	(1,0)	(1,0)	(1,0)	
L2C -17>	(1,1)	(1,0)	(1,0)	(1,0)	(1,0)	(1,0)	(1,0)	(1,0)	(1,0)	(1,0)	(1,0)	(1,0)	(1,0)	(1,0)	(1,0)	(1,0)	
L2C -16>	(1,4)	(1,0)	(1,0)	(1,0)	(1,0)	(1,0)	(1,0)	(1,0)	(1,0)	(1,0)	(1,0)	(1,0)	(1,0)	(1,0)	(1,0)	(1,0)	
L2C -15>	(-8,4)	(16,1)	(1,4)	(1,0)	(1,0)	(1,0)	(1,0)	(1,0)	(1,0)	(1,0)	(1,0)	(1,0)	(1,0)	(1,0)	(1,0)	(1,0)	
L2C -14>	(4,4)	(17,3)	(41,2)	(15,1)	(5,1)	(1,0)	(1,0)	(1,0)	(1,0)	(1,0)	(1,0)	(1,0)	(1,0)	(1,0)	(1,0)	(1,0)	
L2C -13>	(9,1)	(1,0)	(1,0)	(1,0)	(1,0)	(1,0)	(1,0)	(1,0)	(1,0)	(1,0)	(1,0)	(1,0)	(1,0)	(1,0)	(1,0)	(1,0)	
L2C -12>	(13,4)	(1,0)	(1,0)	(1,0)	(1,0)	(1,0)	(1,0)	(1,0)	(1,0)	(1,0)	(1,0)	(1,0)	(1,0)	(1,0)	(1,0)	(1,0)	
L2C -11>	(1,0)	(1,0)	(1,0)	(1,0)	(1,0)	(1,0)	(1,0)	(1,0)	(1,0)	(1,0)	(1,0)	(1,0)	(1,0)	(1,0)	(1,0)	(1,0)	
L2C -10>	(11,1)	(20,4)	(1,0)	(1,0)	(1,0)	(1,0)	(1,0)	(1,0)	(1,0)	(1,0)	(1,0)	(1,0)	(1,0)	(1,0)	(1,0)	(1,0)	
L2C -9>	(1,11)	(1,0)	(1,0)	(1,0)	(1,0)	(1,0)	(1,0)	(1,0)	(1,0)	(1,0)	(1,0)	(1,0)	(1,0)	(1,0)	(1,0)	(1,0)	
L2C -8>	(1,13)	(3,4)	(1,0)	(1,0)	(1,0)	(1,0)	(1,0)	(1,0)	(1,0)	(1,0)	(1,0)	(1,0)	(1,0)	(1,0)	(1,0)	(1,0)	
L2C -7>	(1,16)	(-3,1)	(14,1)	(5,1)	(1,0)	(1,0)	(1,0)	(1,0)	(1,0)	(1,0)	(1,0)	(1,0)	(1,0)	(1,0)	(1,0)	(1,0)	
L2C -6>	(1,13)	(5,1)	(-42,4)	(10,1)	(1,0)	(1,0)	(1,0)	(1,0)	(1,0)	(1,0)	(1,0)	(1,0)	(1,0)	(1,0)	(1,0)	(1,0)	
L2C -5>	(1,11)	(2,3)	(3,1)	(-56,3)	(6,5)	(9,1)	(1,0)	(1,0)	(1,0)	(1,0)	(1,0)	(1,0)	(1,0)	(1,0)	(1,0)	(1,0)	
L2C -4>	(-7,1)	(1,14)	(-1,7)	(-34,3)	(5,1)	(1,0)	(1,0)	(1,0)	(1,0)	(1,0)	(1,0)	(1,0)	(1,0)	(1,0)	(1,0)	(1,0)	
L2C -3>	(-1,1)	(1,6)	(4,5)	(6,1)	(5,1)	(0,1)	(2,2)	(1,0)	(1,0)	(1,0)	(1,0)	(1,0)	(1,0)	(1,0)	(1,0)	(1,0)	
L2C -2>	(5,4)	(3,8)	(-7,2)	(1,4)	(-4,1)	(1,0)	(1,0)	(1,0)	(1,0)	(1,0)	(1,0)	(1,0)	(1,0)	(1,0)	(1,0)	(1,0)	
L2C -1>	(-45,1)	(-26,1)	(-5,1)	(2,6)	(4,5)	(6,4)	(19,1)	(-30,2)	(-50,1)	(1,1)	(1,0)	(1,0)	(1,0)	(1,0)	(1,0)	(1,0)	
L2C 0>	(1,1)	(1,0)	(1,0)	(1,0)	(1,0)	(1,0)	(1,0)	(1,0)	(1,0)	(1,0)	(1,0)	(1,0)	(1,0)	(1,0)	(1,0)	(1,0)	
L2C 1>	(1,157)	(8,0)	(5,0)	(-2,1)	(-63,0)	(-5,1)	(-54,0)	(-1,0)	(4,1)	(-4,1)	(-20,0)	(7,0)	(3,1)	(-7,0)	(2,3)	(24,0)	
L2C 2>	(1,73)	(3,7)	(4,3)	(6,4)	(-37,3)	(-1,12)	(-6,1)	(-19,3)	(31,4)	(2,4)	(-29,2)	(24,2)	(-8,1)	(1,0)	(1,0)	(1,0)	
L2C 3>	(5,1)	(2,5)	(1,54)	(-9,2)	(21,2)	(-2,2)	(-5,1)	(-21,1)	(-4,1)	(1,0)	(1,0)	(1,0)	(1,0)	(1,0)	(1,0)	(1,0)	
L2C 4>	(1,27)	(-1,1)	(2,4)	(3,2)	(11,4)	(-22,3)	(-3,3)	(-61,1)	(-29,1)	(1,0)	(1,0)	(1,0)	(1,0)	(1,0)	(1,0)	(1,0)	
L2C 5>	(1,18)	(5,6)	(-8,1)	(-13,1)	(-6,2)	(-19,1)	(6,1)	(-4,3)	(-3,1)	(-7,1)	(-24,1)	(1,0)	(1,0)	(1,0)	(1,0)	(1,0)	
L2C 6>	(1,36)	(-32,1)	(-14,3)	(-5,3)	(1,0)	(1,0)	(1,0)	(1,0)	(1,0)	(1,0)	(1,0)	(1,0)	(1,0)	(1,0)	(1,0)	(1,0)	
L2C 7>	(1,14)	(6,1)	(-6,7)	(3,1)	(12,2)	(1,0)	(1,0)	(1,0)	(1,0)	(1,0)	(1,0)	(1,0)	(1,0)	(1,0)	(1,0)	(1,0)	
L2C 8>	(1,10)	(-7,6)	(4,1)	(10,1)	(1,0)	(1,0)	(1,0)	(1,0)	(1,0)	(1,0)	(1,0)	(1,0)	(1,0)	(1,0)	(1,0)	(1,0)	
L2C 9>	(-10,1)	(-8,9)	(1,6)	(1,0)	(1,0)	(1,0)	(1,0)	(1,0)	(1,0)	(1,0)	(1,0)	(1,0)	(1,0)	(1,0)	(1,0)	(1,0)	
L2C 10>	(1,5)	(-7,4)	(1,0)	(1,0)	(1,0)	(1,0)	(1,0)	(1,0)	(1,0)	(1,0)	(1,0)	(1,0)	(1,0)	(1,0)	(1,0)	(1,0)	
L2C 11>	(-43,1)	(1,10)	(3,1)	(1,0)	(1,0)	(1,0)	(1,0)	(1,0)	(1,0)	(1,0)	(1,0)	(1,0)	(1,0)	(1,0)	(1,0)	(1,0)	
L2C 12>	(1,5)	(2,1)	(1,0)	(1,0)	(1,0)	(1,0)	(1,0)	(1,0)	(1,0)	(1,0)	(1,0)	(1,0)	(1,0)	(1,0)	(1,0)	(1,0)	
L2C 13>	(1,5)	(2,1)	(1,0)	(1,0)	(1,0)	(1,0)	(1,0)	(1,0)	(1,0)	(1,0)	(1,0)	(1,0)	(1,0)	(1,0)	(1,0)	(1,0)	
L2C 14>	(-15,1)	(1,0)	(1,0)	(1,0)	(1,0)	(1,0)	(1,0)	(1,0)	(1,0)	(1,0)	(1,0)	(1,0)	(1,0)	(1,0)	(1,0)	(1,0)	
L2C 15>	(-14,7)	(1,1)	(1,0)	(1,0)	(1,0)	(1,0)	(1,0)	(1,0)	(1,0)	(1,0)	(1,0)	(1,0)	(1,0)	(1,0)	(1,0)	(1,0)	
L2C 16>	(1,4)	(1,0)	(1,0)	(1,0)	(1,0)	(1,0)	(1,0)	(1,0)	(1,0)	(1,0)	(1,0)	(1,0)	(1,0)	(1,0)	(1,0)	(1,0)	
L2C 17>	(1,4)	(1,0)	(1,0)	(1,0)	(1,0)	(1,0)	(1,0)	(1,0)	(1,0)	(1,0)	(1,0)	(1,0)	(1,0)	(1,0)	(1,0)	(1,0)	
L2C 18>	(1,1)	(1,0)	(1,0)	(1,0)	(1,0)	(1,0)	(1,0)	(1,0)	(1,0)	(1,0)	(1,0)	(1,0)	(1,0)	(1,0)	(1,0)	(1,0)	
L2C 19>	(1,10)	(1,0)	(1,0)	(1,0)	(1,0)	(1,0)	(1,0)	(1,0)	(1,0)	(1,0)	(1,0)	(1,0)	(1,0)	(1,0)	(1,0)	(1,0)	
L2C 20>	(-15,4)	(1,0)	(1,0)	(1,0)	(1,0)	(1,0)	(1,0)	(1,0)	(1,0)	(1,0)	(1,0)	(1,0)	(1,0)	(1,0)	(1,0)	(1,0)	
L2C 21>	(-18,4)	(1,3)	(-26,2)	(2,1)	(1,0)	(1,0)	(1,0)	(1,0)	(1,0)	(1,0)	(1,0)	(1,0)	(1,0)	(1,0)	(1,0)	(1,0)	
L2C 22>	(10,2)	(9,2)	(8,1)	(1,0)	(1,0)	(1,0)	(1,0)	(1,0)	(1,0)	(1,0)	(1,0)	(1,0)	(1,0)	(1,0)	(1,0)	(1,0)	
L2C 23>	(1,0)	(1,0)	(1,0)	(1,0)	(1,0)	(1,0)	(1,0)	(1,0)	(1,0)	(1,0)	(1,0)	(1,0)	(1,0)	(1,0)	(1,0)	(1,0)	
L2C 24>	(-21,1)	(-1,1)	(-26,4)	(1,0)	(1,0)	(1,0)	(1,0)	(1,0)	(1,0)	(1,0)	(1,0)	(1,0)	(1,0)	(1,0)	(1,0)	(1,0)	
L2C 25>	(1,9)	(1,0)	(1,0)	(1,0)	(1,0)	(1,0)	(1,0)	(1,0)	(1,0)	(1,0)	(1,0)	(1,0)	(1,0)	(1,0)	(1,0)	(1,0)	
L2C 26>	(5,1)	(-56,1)	(1,0)	(1,0)	(1,0)	(1,0)	(1,0)	(1,0)	(1,0)	(1,0)	(1,0)	(1,0)	(1,0)	(1,0)	(1,0)	(1,0)	
L2C 27>	(1,1)	(1,0)	(1,0)	(1,0)	(1,0)	(1,0)	(1,0)	(1,0)	(1,0)	(1,0)	(1,0)	(1,0)	(1,0)	(1,0)	(1,0)	(1,0)	
L2C 28>	(1,0)	(1,0)	(1,0)	(1,0)	(1,0)	(1,0)	(1,0)	(1,0)	(1,0)	(1,0)	(1,0)	(1,0)	(1,0)	(1,0)	(1,0)	(1,0)	
L2C 29>	(-20,1)	(1,0)	(1,0)	(1,0)	(1,0)	(1,0)	(1,0)	(1,0)	(1,0)	(1,0)	(1,0)	(1,0)	(1,0)	(1,0)	(1,0)	(1,0)	
L2C 30>	(-29,4)	(1,0)	(1,0)	(1,0)	(1,0)	(1,0)	(1,0)	(1,0)	(1,0)	(1,0)	(1,0)	(1,0)	(1,0)	(1,0)	(1,0)	(1,0)	
L2C 31>	(1,5)	(-5,2)	(1,0)	(1,0)	(1,0)	(1,0)	(1,0)	(1,0)	(1,0)	(1,0)	(1,0)	(1,0)	(1,0)	(1,0)	(1,0)	(1,0)	
L2C 32>	(1,0)	(1,0)	(1,0)	(1,0)	(1,0)	(1,0)	(1,0)	(1,0)	(1,0)	(1,0)	(1,0)	(1,0)	(1,0)	(1,0)	(1,0)	(1,0)	
L2C 33>	(1,0)	(1,0)	(1,0)	(1,0)	(1,0)	(1,0)	(1,0)	(1,0)	(1,0)	(1,0)	(1,0)	(1,0)	(1,0)	(1,0)	(1,0)	(1,0)	
L2C 34>	(-24,1)	(1,2)	(1,0)	(1,0)	(1,0)	(1,0)	(1,0)	(1,0)	(1,0)	(1,0)	(1,0)	(1,0)	(1,0)	(1,0)	(1,0)	(1,0)	
L2C 35>	(1,0)	(1,0)	(1,0)	(1,0)	(1,0)	(1,0)	(1,0)	(1,0)	(1,0)	(1,0)	(1,0)	(1,0)	(1,0)	(1,0)	(1,0)	(1,0)	
L2C 36>	(1,0)	(1,0)	(1,0)	(1,0)	(1,0)	(1,0)	(1,0)	(1,0)	(1,0)	(1,0)	(1,0)	(1,0)	(1,0)	(1,0)	(1,0)	(1,0)	
L2C 37>	(1,0)	(1,0)	(1,0)	(1,0)	(1,0)	(1,0)	(1,0)	(1,0)	(1,0)	(1,0)	(1,0)	(1,0)	(1,0)	(1,0)	(1,0)	(1,0)	
L2C 38>	(1,4)	(1,0)	(1,0)	(1,0)	(1,0)	(1,0)	(1,0)	(1,0)	(1,0)	(1,0)	(1,0)	(1,0)	(1,0)	(1,0)	(1,0)	(1,0)	
L2C 39>	(1,0)	(1,0)	(1,0)	(1,0)	(1,0)	(1,0)	(1,0)	(1,0)	(1,0)	(1,0)	(1,0)	(1,0)	(1,0)	(1,0)	(1,0)	(1,0)	
L2C 40>	(1,0)	(1,0)	(1,0)	(1,0)	(1,0)	(1,0)	(1,0)	(1,0)	(1,0)	(1,0)	(1,0)	(1,0)	(1,0)	(1,0)	(1,0)	(1,0)	
L2C 41>	(1,2)	(1,0)	(1,0)	(1,0)	(1,0)	(1,0)	(1,0)	(1,0)	(1,0)	(1,0)	(1,0)	(1,0)	(1,0)	(1,0)	(1,0)	(1,0)	
L2C 42>	(1,0)	(1,0)	(1,0)	(1,0)	(1,0)	(1,0)	(1,0)	(1,0)	(1,0)	(1,0)	(1,0)	(1,0)	(1,0)	(1,0)	(1,0)	(1,0)	
L2C 43>	(1,0)	(1,0)	(1,0)	(1,0)	(1,0)	(1,0)	(1,0)	(1,0)	(1,0)	(1,0)	(1,0)	(1,0)	(1,0)	(1,0)	(1,0)	(1,0)	
L2C 44>	(-43,2)	(1,0)	(1,0)	(1,0)	(1,0)	(1,0)	(1,0)	(1,0)	(1,0)	(1,0)	(1,0)	(1,0)	(1,0)	(1,0)	(1,0)	(1,0)	
L2C 45>	(1,0)	(1,0)	(1,0)	(1,0)	(1,0)	(1,0)	(1,0)	(1,0)	(1,0)	(1,0)	(1,0)	(1,0)	(1,0)	(1,0)	(1,0)	(1,0)	
L2C 46>	(1,1)	(1,0)	(1,0)	(1,0)	(1,0)	(1,0)	(1,0)	(1,0)	(1,0)	(1,0)	(1,0)	(1,0)	(1,0)	(1,0)	(1,0)	(1,0)	
L2C 47>	(1,0)	(1,0)	(1,0)	(1,0)	(1,0)	(1,0)	(1,0)	(1,0)	(1,0)	(1,0)	(1,0)	(1,0)	(1,0)	(1,0)	(1,0)	(1,0)	
L2C 48>	(5,1)	(1,0)	(1,0)	(1,0)	(1,0)	(1,0)	(1,0)	(1,0)	(1,0)	(1,0)	(1,0)	(1,0)	(1,0)	(1,0)	(1,0)	(1,0)	
L2C 49>	(-48,4)	(1,0)	(1,0)	(1,0)	(1,0)	(1,0)	(1,0)	(1,0)	(1,0)	(1,0)	(1,0)	(1,0)	(1,0)	(1,0)	(1,0)	(1,0)	
L2C 50>	(1,0)	(1,0)	(1,0)	(1,0)	(1,0)	(1,0)	(1,0)	(1,0)	(1,0)	(1,0)	(1,0)	(1,0)	(1,0)	(1,0)	(1,0)	(1,0)	
L2C 51>	(1,0)	(1,0)	(1,0)	(1,0)	(1,0)	(1,0)	(1,0)	(1,0)	(1,0)	(1,0)	(1,0)	(1,0)	(1,0)	(1,0)	(1,0)	(1,0)	
L2C 52>	(1,0)	(1,0)	(1,0)	(1,0)	(1,0)	(1,0)	(1,0)	(1,0)	(1,0)	(1,0)	(1,0)	(1,0)	(1,0)	(1,0)	(1,0)	(1,0)	
L2C 53>	(1,1)	(1,0)	(1,0)	(1,0)	(1,0)	(1,0)	(1,0)	(1,0)	(1,0)	(1,0)	(1,0)	(1,0)	(1,0)	(1,0)	(1,0)	(1,0)	
L2C 54>	(1,0)	(1,0)	(1,0)	(1,0)	(1,0)	(1,0)	(1,0)	(1,0)	(1,0)	(1,0)	(1,0)	(1,0)	(1,0)	(1,0)	(1,0)	(1,0)	
L2C 55>	(1,0)	(1,0)	(1,0)	(1,0)	(1,0)	(1,0)	(1,0)	(1,0)	(1,0)	(1,0)	(1,0)	(1,0)	(1,0)	(1,0)	(1,0)	(1,0)	
L2C 56>	(1,1)	(1,0)	(1,0)	(1,0)	(1,0)	(1,0)	(1,0)	(1,0)	(1,0)	(1,0)	(1,0)	(1,0)	(1,0)	(1,0)	(1,0)	(1,0)	
L2C 57>	(1,0)	(1,0)	(1,0)	(1,0)	(1,0)	(1,0)	(1,0)	(1,0)	(1,0)	(1,0)	(1,0)	(1,0)	(1,0)	(1,0)	(1,0)	(1,0)	
L2C 58>	(1,0)	(1,0)	(1,0)	(1,0)	(1,0)	(1,0)	(1,0)	(1,0)	(1,0)	(1,0)	(1,0)	(1,0)	(1,0)	(1,0)	(1,0)	(1,0)	
L2C 59>	(1,0)	(1,0)	(1,0)	(1,0)	(1,0)	(1,0)	(1,0)	(1,0)	(1,0)	(1,0)	(1,0)	(1,0)	(1,0)	(1,0)	(1,0)	(1,0)	
L2C 60>	(1,0)	(1,0)	(1,0)	(1,0)	(1,0)	(1,0)	(1,0)	(1,0)	(1,0)	(1,0)	(1,0)	(1,0)	(1,0)	(1,0)	(1,0)	(1,0)	
L2C 61>	(1,0)	(1,0)	(1,0)	(1,0)	(1,0)	(1,0)	(1,0)	(1,0)	(1,0)	(1,0)	(1,0)	(1,0)	(1,0)	(1,0)	(1,0)	(1,0)	
L2C 62>	(1,0)	(1,0)	(1,0)	(1,0)	(1,0)	(1,0)	(1,0)	(1,0)	(1,0)	(1,0)	(1,0)	(1,0)	(1,0)	(1,0)	(1,0)	(1,0)	
L2C 63>	(1,0)	(1,0)	(1,0)	(1,0)	(1,0)	(1,0)	(1,0)	(1,0)	(1,0)	(1,0)	(1,0)	(1,0)	(1,0)	(1,0)	(1,0)	(1,0)	

DRAM Statistics
 CHANNEL 0
 RQ ROW_BUFFER_HIT:        894  ROW_BUFFER_MISS:        287
 DBUS_CONGESTED:        776
 WQ ROW_BUFFER_HIT:          0  ROW_BUFFER_MISS:          0  FULL:          0

 AVG_CONGESTED_CYCLE: 6
