
*** ChampSim Multicore Out-of-Order Simulator ***

Warmup Instructions: 1000000
Simulation Instructions: 10000000
Number of CPUs: 1
LLC sets: 2048
LLC ways: 16
Off-chip DRAM Size: 4096 MB Channels: 1 Width: 64-bit Data Rate: 3200 MT/s

CPU 0 runs /home/virtualcse/Data-Prefetching/ChampSim/dpc3_traces/649.fotonik3d_s-10881B.champsimtrace.xz
Ultra pref. initializing...
Ultra pref. initialized
Ultra pref. initializing...
Ultra pref. initialized

Warmup complete CPU 0 instructions: 1000004 cycles: 691515 (Simulation time: 0 hr 0 min 3 sec) 

Heartbeat CPU 0 instructions: 10000002 cycles: 17228325 heartbeat IPC: 0.58044 cumulative IPC: 0.54424 (Simulation time: 0 hr 0 min 36 sec) 
Finished CPU 0 instructions: 10000001 cycles: 18389415 cumulative IPC: 0.543791 (Simulation time: 0 hr 0 min 40 sec) 

CPU 0 Branch Prediction Accuracy: 99.9933% MPKI: 0.0008 Average ROB Occupancy at Mispredict: 349.75

ChampSim completed all CPUs

Region of Interest Statistics

CPU 0 cumulative IPC: 0.543791 instructions: 10000001 cycles: 18389415
L1D TOTAL     ACCESS:    9924252  HIT:    9459899  MISS:     464353
L1D LOAD      ACCESS:    4634196  HIT:    4548733  MISS:      85463
L1D RFO       ACCESS:     641129  HIT:     641129  MISS:          0
L1D PREFETCH  ACCESS:    4648927  HIT:    4270037  MISS:     378890
L1D WRITEBACK ACCESS:          0  HIT:          0  MISS:          0
L1D PREFETCH  REQUESTED:  113162189  ISSUED:   33019276  USEFUL:     118397  USELESS:     298388
L1D AVERAGE MISS LATENCY: 218.572 cycles
L1I TOTAL     ACCESS:    1033650  HIT:    1033650  MISS:          0
L1I LOAD      ACCESS:    1033650  HIT:    1033650  MISS:          0
L1I RFO       ACCESS:          0  HIT:          0  MISS:          0
L1I PREFETCH  ACCESS:          0  HIT:          0  MISS:          0
L1I WRITEBACK ACCESS:          0  HIT:          0  MISS:          0
L1I PREFETCH  REQUESTED:          0  ISSUED:          0  USEFUL:          0  USELESS:          0
L1I AVERAGE MISS LATENCY: -nan cycles
L2C TOTAL     ACCESS:    1730612  HIT:     809559  MISS:     921053
L2C LOAD      ACCESS:      79643  HIT:       6836  MISS:      72807
L2C RFO       ACCESS:          0  HIT:          0  MISS:          0
L2C PREFETCH  ACCESS:    1553822  HIT:     705577  MISS:     848245
L2C WRITEBACK ACCESS:      97147  HIT:      97146  MISS:          1
L2C PREFETCH  REQUESTED:    3407003  ISSUED:    2522294  USEFUL:       7872  USELESS:     940545
L2C AVERAGE MISS LATENCY: 335.267 cycles
LLC TOTAL     ACCESS:    1018077  HIT:      99671  MISS:     918406
LLC LOAD      ACCESS:      71742  HIT:        767  MISS:      70975
LLC RFO       ACCESS:          0  HIT:          0  MISS:          0
LLC PREFETCH  ACCESS:     849312  HIT:       1881  MISS:     847431
LLC WRITEBACK ACCESS:      97023  HIT:      97023  MISS:          0
LLC PREFETCH  REQUESTED:          0  ISSUED:          0  USEFUL:          7  USELESS:     925222
LLC AVERAGE MISS LATENCY: 293.346 cycles
Major fault: 0 Minor fault: 29134

L1D -512>	(254,0)	(0,11)	(1,87)	(224,0)	(-4,0)	(2,6)	(255,0)	(1,0)	(1,0)	(1,0)	(1,0)	(1,0)	(1,0)	(1,0)	(1,0)	(1,0)	
L1D -511>	(0,20)	(1,2)	(1,0)	(1,0)	(1,0)	(1,0)	(1,0)	(1,0)	(1,0)	(1,0)	(1,0)	(1,0)	(1,0)	(1,0)	(1,0)	(1,0)	
L1D -510>	(1,0)	(1,0)	(1,0)	(1,0)	(1,0)	(1,0)	(1,0)	(1,0)	(1,0)	(1,0)	(1,0)	(1,0)	(1,0)	(1,0)	(1,0)	(1,0)	
L1D -509>	(1,1)	(1,0)	(1,0)	(1,0)	(1,0)	(1,0)	(1,0)	(1,0)	(1,0)	(1,0)	(1,0)	(1,0)	(1,0)	(1,0)	(1,0)	(1,0)	
L1D -508>	(1,0)	(1,0)	(1,0)	(1,0)	(1,0)	(1,0)	(1,0)	(1,0)	(1,0)	(1,0)	(1,0)	(1,0)	(1,0)	(1,0)	(1,0)	(1,0)	
L1D -507>	(1,0)	(1,0)	(1,0)	(1,0)	(1,0)	(1,0)	(1,0)	(1,0)	(1,0)	(1,0)	(1,0)	(1,0)	(1,0)	(1,0)	(1,0)	(1,0)	
L1D -506>	(1,0)	(1,0)	(1,0)	(1,0)	(1,0)	(1,0)	(1,0)	(1,0)	(1,0)	(1,0)	(1,0)	(1,0)	(1,0)	(1,0)	(1,0)	(1,0)	
L1D -505>	(1,0)	(1,0)	(1,0)	(1,0)	(1,0)	(1,0)	(1,0)	(1,0)	(1,0)	(1,0)	(1,0)	(1,0)	(1,0)	(1,0)	(1,0)	(1,0)	
L1D -504>	(1,0)	(1,0)	(1,0)	(1,0)	(1,0)	(1,0)	(1,0)	(1,0)	(1,0)	(1,0)	(1,0)	(1,0)	(1,0)	(1,0)	(1,0)	(1,0)	
L1D -503>	(1,0)	(1,0)	(1,0)	(1,0)	(1,0)	(1,0)	(1,0)	(1,0)	(1,0)	(1,0)	(1,0)	(1,0)	(1,0)	(1,0)	(1,0)	(1,0)	
L1D -502>	(1,0)	(1,0)	(1,0)	(1,0)	(1,0)	(1,0)	(1,0)	(1,0)	(1,0)	(1,0)	(1,0)	(1,0)	(1,0)	(1,0)	(1,0)	(1,0)	
L1D -501>	(1,1)	(1,0)	(1,0)	(1,0)	(1,0)	(1,0)	(1,0)	(1,0)	(1,0)	(1,0)	(1,0)	(1,0)	(1,0)	(1,0)	(1,0)	(1,0)	
L1D -500>	(231,2)	(232,1)	(233,1)	(234,1)	(235,1)	(236,1)	(237,1)	(238,1)	(239,1)	(240,1)	(241,1)	(242,1)	(1,0)	(1,0)	(1,0)	(1,0)	
L1D -499>	(231,2)	(232,2)	(233,2)	(234,2)	(235,2)	(236,2)	(237,2)	(238,2)	(239,2)	(240,2)	(241,2)	(242,1)	(230,2)	(1,0)	(1,0)	(1,0)	
L1D -498>	(231,3)	(232,3)	(233,3)	(234,3)	(235,3)	(236,3)	(237,3)	(238,3)	(239,3)	(240,3)	(241,2)	(242,1)	(230,2)	(229,2)	(1,0)	(1,0)	
L1D -497>	(231,4)	(232,4)	(233,4)	(234,4)	(235,4)	(236,4)	(237,4)	(238,4)	(239,4)	(240,3)	(241,2)	(242,1)	(229,2)	(230,2)	(228,2)	(1,0)	
L1D -496>	(230,5)	(231,4)	(232,4)	(233,4)	(234,4)	(235,4)	(236,4)	(237,4)	(238,4)	(239,3)	(240,2)	(241,1)	(229,3)	(228,2)	(227,2)	(1,0)	
L1D -495>	(229,4)	(230,4)	(231,4)	(232,4)	(233,4)	(234,4)	(235,4)	(236,4)	(237,4)	(238,3)	(239,2)	(240,1)	(228,3)	(227,2)	(226,1)	(1,0)	
L1D -494>	(228,4)	(229,4)	(230,4)	(231,4)	(232,4)	(233,4)	(234,4)	(235,4)	(236,4)	(237,3)	(238,2)	(239,1)	(227,3)	(226,3)	(225,1)	(1,0)	
L1D -493>	(227,4)	(228,4)	(229,4)	(230,4)	(231,4)	(232,4)	(233,4)	(234,4)	(235,4)	(236,3)	(237,2)	(1,1)	(226,3)	(225,2)	(224,1)	(493,12)	
L1D -492>	(226,4)	(227,4)	(228,4)	(229,4)	(230,4)	(231,4)	(232,4)	(233,4)	(234,4)	(235,3)	(236,2)	(223,1)	(225,4)	(224,2)	(492,24)	(1,1)	
L1D -491>	(225,3)	(226,3)	(227,3)	(228,3)	(229,3)	(230,3)	(231,3)	(232,3)	(233,3)	(234,3)	(235,2)	(236,1)	(491,36)	(1,1)	(224,2)	(223,1)	
L1D -490>	(490,47)	(1,2)	(224,3)	(225,2)	(226,2)	(227,2)	(228,2)	(229,2)	(230,2)	(231,2)	(232,2)	(233,2)	(234,2)	(235,1)	(223,1)	(1,0)	
L1D -489>	(489,58)	(1,3)	(223,2)	(224,1)	(225,1)	(226,1)	(227,1)	(228,1)	(229,1)	(230,1)	(231,1)	(232,1)	(233,1)	(234,1)	(1,0)	(1,0)	
L1D -488>	(488,68)	(1,5)	(1,0)	(1,0)	(1,0)	(1,0)	(1,0)	(1,0)	(1,0)	(1,0)	(1,0)	(1,0)	(1,0)	(1,0)	(1,0)	(1,0)	
L1D -487>	(487,82)	(1,4)	(1,0)	(1,0)	(1,0)	(1,0)	(1,0)	(1,0)	(1,0)	(1,0)	(1,0)	(1,0)	(1,0)	(1,0)	(1,0)	(1,0)	
L1D -486>	(486,91)	(1,6)	(1,0)	(1,0)	(1,0)	(1,0)	(1,0)	(1,0)	(1,0)	(1,0)	(1,0)	(1,0)	(1,0)	(1,0)	(1,0)	(1,0)	
L1D -485>	(485,102)	(0,6)	(1,8)	(1,0)	(1,0)	(1,0)	(1,0)	(1,0)	(1,0)	(1,0)	(1,0)	(1,0)	(1,0)	(1,0)	(1,0)	(1,0)	
L1D -484>	(484,114)	(1,8)	(1,0)	(1,0)	(1,0)	(1,0)	(1,0)	(1,0)	(1,0)	(1,0)	(1,0)	(1,0)	(1,0)	(1,0)	(1,0)	(1,0)	
L1D -483>	(483,113)	(1,7)	(1,0)	(1,0)	(1,0)	(1,0)	(1,0)	(1,0)	(1,0)	(1,0)	(1,0)	(1,0)	(1,0)	(1,0)	(1,0)	(1,0)	
L1D -482>	(482,111)	(1,9)	(1,0)	(1,0)	(1,0)	(1,0)	(1,0)	(1,0)	(1,0)	(1,0)	(1,0)	(1,0)	(1,0)	(1,0)	(1,0)	(1,0)	
L1D -481>	(481,113)	(1,7)	(1,0)	(1,0)	(1,0)	(1,0)	(1,0)	(1,0)	(1,0)	(1,0)	(1,0)	(1,0)	(1,0)	(1,0)	(1,0)	(1,0)	
L1D -480>	(480,113)	(1,7)	(1,0)	(1,0)	(1,0)	(1,0)	(1,0)	(1,0)	(1,0)	(1,0)	(1,0)	(1,0)	(1,0)	(1,0)	(1,0)	(1,0)	
L1D -479>	(479,114)	(1,6)	(1,0)	(1,0)	(1,0)	(1,0)	(1,0)	(1,0)	(1,0)	(1,0)	(1,0)	(1,0)	(1,0)	(1,0)	(1,0)	(1,0)	
L1D -478>	(478,113)	(1,7)	(1,0)	(1,0)	(1,0)	(1,0)	(1,0)	(1,0)	(1,0)	(1,0)	(1,0)	(1,0)	(1,0)	(1,0)	(1,0)	(1,0)	
L1D -477>	(477,114)	(1,6)	(0,7)	(1,0)	(1,0)	(1,0)	(1,0)	(1,0)	(1,0)	(1,0)	(1,0)	(1,0)	(1,0)	(1,0)	(1,0)	(1,0)	
L1D -476>	(476,115)	(1,5)	(1,0)	(1,0)	(1,0)	(1,0)	(1,0)	(1,0)	(1,0)	(1,0)	(1,0)	(1,0)	(1,0)	(1,0)	(1,0)	(1,0)	
L1D -475>	(475,113)	(1,7)	(1,0)	(1,0)	(1,0)	(1,0)	(1,0)	(1,0)	(1,0)	(1,0)	(1,0)	(1,0)	(1,0)	(1,0)	(1,0)	(1,0)	
L1D -474>	(474,112)	(1,8)	(1,0)	(1,0)	(1,0)	(1,0)	(1,0)	(1,0)	(1,0)	(1,0)	(1,0)	(1,0)	(1,0)	(1,0)	(1,0)	(1,0)	
L1D -473>	(473,113)	(1,7)	(1,0)	(1,0)	(1,0)	(1,0)	(1,0)	(1,0)	(1,0)	(1,0)	(1,0)	(1,0)	(1,0)	(1,0)	(1,0)	(1,0)	
L1D -472>	(472,112)	(1,6)	(0,1)	(1,0)	(1,0)	(1,0)	(1,0)	(1,0)	(1,0)	(1,0)	(1,0)	(1,0)	(1,0)	(1,0)	(1,0)	(1,0)	
L1D -471>	(471,111)	(1,10)	(1,0)	(1,0)	(1,0)	(1,0)	(1,0)	(1,0)	(1,0)	(1,0)	(1,0)	(1,0)	(1,0)	(1,0)	(1,0)	(1,0)	
L1D -470>	(470,113)	(1,8)	(1,0)	(1,0)	(1,0)	(1,0)	(1,0)	(1,0)	(1,0)	(1,0)	(1,0)	(1,0)	(1,0)	(1,0)	(1,0)	(1,0)	
L1D -469>	(469,114)	(1,6)	(1,0)	(1,0)	(1,0)	(1,0)	(1,0)	(1,0)	(1,0)	(1,0)	(1,0)	(1,0)	(1,0)	(1,0)	(1,0)	(1,0)	
L1D -468>	(468,113)	(1,7)	(1,0)	(1,0)	(1,0)	(1,0)	(1,0)	(1,0)	(1,0)	(1,0)	(1,0)	(1,0)	(1,0)	(1,0)	(1,0)	(1,0)	
L1D -467>	(467,113)	(1,10)	(1,0)	(1,0)	(1,0)	(1,0)	(1,0)	(1,0)	(1,0)	(1,0)	(1,0)	(1,0)	(1,0)	(1,0)	(1,0)	(1,0)	
L1D -466>	(466,113)	(1,7)	(1,0)	(1,0)	(1,0)	(1,0)	(1,0)	(1,0)	(1,0)	(1,0)	(1,0)	(1,0)	(1,0)	(1,0)	(1,0)	(1,0)	
L1D -465>	(465,116)	(1,4)	(1,0)	(1,0)	(1,0)	(1,0)	(1,0)	(1,0)	(1,0)	(1,0)	(1,0)	(1,0)	(1,0)	(1,0)	(1,0)	(1,0)	
L1D -464>	(464,114)	(1,6)	(1,0)	(1,0)	(1,0)	(1,0)	(1,0)	(1,0)	(1,0)	(1,0)	(1,0)	(1,0)	(1,0)	(1,0)	(1,0)	(1,0)	
L1D -463>	(463,113)	(1,7)	(1,0)	(1,0)	(1,0)	(1,0)	(1,0)	(1,0)	(1,0)	(1,0)	(1,0)	(1,0)	(1,0)	(1,0)	(1,0)	(1,0)	
L1D -462>	(462,112)	(1,8)	(1,0)	(1,0)	(1,0)	(1,0)	(1,0)	(1,0)	(1,0)	(1,0)	(1,0)	(1,0)	(1,0)	(1,0)	(1,0)	(1,0)	
L1D -461>	(461,114)	(1,8)	(1,0)	(1,0)	(1,0)	(1,0)	(1,0)	(1,0)	(1,0)	(1,0)	(1,0)	(1,0)	(1,0)	(1,0)	(1,0)	(1,0)	
L1D -460>	(460,111)	(1,9)	(1,0)	(1,0)	(1,0)	(1,0)	(1,0)	(1,0)	(1,0)	(1,0)	(1,0)	(1,0)	(1,0)	(1,0)	(1,0)	(1,0)	
L1D -459>	(459,113)	(1,7)	(1,0)	(1,0)	(1,0)	(1,0)	(1,0)	(1,0)	(1,0)	(1,0)	(1,0)	(1,0)	(1,0)	(1,0)	(1,0)	(1,0)	
L1D -458>	(458,112)	(1,6)	(0,1)	(1,0)	(1,0)	(1,0)	(1,0)	(1,0)	(1,0)	(1,0)	(1,0)	(1,0)	(1,0)	(1,0)	(1,0)	(1,0)	
L1D -457>	(457,113)	(1,7)	(1,0)	(1,0)	(1,0)	(1,0)	(1,0)	(1,0)	(1,0)	(1,0)	(1,0)	(1,0)	(1,0)	(1,0)	(1,0)	(1,0)	
L1D -456>	(456,112)	(1,8)	(1,0)	(1,0)	(1,0)	(1,0)	(1,0)	(1,0)	(1,0)	(1,0)	(1,0)	(1,0)	(1,0)	(1,0)	(1,0)	(1,0)	
L1D -455>	(455,112)	(1,8)	(1,0)	(1,0)	(1,0)	(1,0)	(1,0)	(1,0)	(1,0)	(1,0)	(1,0)	(1,0)	(1,0)	(1,0)	(1,0)	(1,0)	
L1D -454>	(454,114)	(1,6)	(1,0)	(1,0)	(1,0)	(1,0)	(1,0)	(1,0)	(1,0)	(1,0)	(1,0)	(1,0)	(1,0)	(1,0)	(1,0)	(1,0)	
L1D -453>	(453,114)	(1,6)	(1,0)	(1,0)	(1,0)	(1,0)	(1,0)	(1,0)	(1,0)	(1,0)	(1,0)	(1,0)	(1,0)	(1,0)	(1,0)	(1,0)	
L1D -452>	(452,113)	(1,7)	(1,0)	(1,0)	(1,0)	(1,0)	(1,0)	(1,0)	(1,0)	(1,0)	(1,0)	(1,0)	(1,0)	(1,0)	(1,0)	(1,0)	
L1D -451>	(451,112)	(1,8)	(1,0)	(1,0)	(1,0)	(1,0)	(1,0)	(1,0)	(1,0)	(1,0)	(1,0)	(1,0)	(1,0)	(1,0)	(1,0)	(1,0)	
L1D -450>	(450,113)	(1,7)	(1,0)	(1,0)	(1,0)	(1,0)	(1,0)	(1,0)	(1,0)	(1,0)	(1,0)	(1,0)	(1,0)	(1,0)	(1,0)	(1,0)	
L1D -449>	(449,111)	(1,9)	(1,0)	(1,0)	(1,0)	(1,0)	(1,0)	(1,0)	(1,0)	(1,0)	(1,0)	(1,0)	(1,0)	(1,0)	(1,0)	(1,0)	
L1D -448>	(448,113)	(1,7)	(1,0)	(1,0)	(1,0)	(1,0)	(1,0)	(1,0)	(1,0)	(1,0)	(1,0)	(1,0)	(1,0)	(1,0)	(1,0)	(1,0)	
L1D -447>	(447,115)	(1,6)	(1,0)	(1,0)	(1,0)	(1,0)	(1,0)	(1,0)	(1,0)	(1,0)	(1,0)	(1,0)	(1,0)	(1,0)	(1,0)	(1,0)	
L1D -446>	(446,113)	(1,7)	(1,0)	(1,0)	(1,0)	(1,0)	(1,0)	(1,0)	(1,0)	(1,0)	(1,0)	(1,0)	(1,0)	(1,0)	(1,0)	(1,0)	
L1D -445>	(445,113)	(1,9)	(1,0)	(1,0)	(1,0)	(1,0)	(1,0)	(1,0)	(1,0)	(1,0)	(1,0)	(1,0)	(1,0)	(1,0)	(1,0)	(1,0)	
L1D -444>	(444,114)	(1,6)	(1,0)	(1,0)	(1,0)	(1,0)	(1,0)	(1,0)	(1,0)	(1,0)	(1,0)	(1,0)	(1,0)	(1,0)	(1,0)	(1,0)	
L1D -443>	(443,115)	(1,5)	(1,0)	(1,0)	(1,0)	(1,0)	(1,0)	(1,0)	(1,0)	(1,0)	(1,0)	(1,0)	(1,0)	(1,0)	(1,0)	(1,0)	
L1D -442>	(442,114)	(1,8)	(1,0)	(1,0)	(1,0)	(1,0)	(1,0)	(1,0)	(1,0)	(1,0)	(1,0)	(1,0)	(1,0)	(1,0)	(1,0)	(1,0)	
L1D -441>	(441,112)	(1,9)	(1,0)	(1,0)	(1,0)	(1,0)	(1,0)	(1,0)	(1,0)	(1,0)	(1,0)	(1,0)	(1,0)	(1,0)	(1,0)	(1,0)	
L1D -440>	(440,113)	(1,7)	(1,0)	(1,0)	(1,0)	(1,0)	(1,0)	(1,0)	(1,0)	(1,0)	(1,0)	(1,0)	(1,0)	(1,0)	(1,0)	(1,0)	
L1D -439>	(439,112)	(1,7)	(0,8)	(1,0)	(1,0)	(1,0)	(1,0)	(1,0)	(1,0)	(1,0)	(1,0)	(1,0)	(1,0)	(1,0)	(1,0)	(1,0)	
L1D -438>	(438,109)	(1,11)	(0,1)	(1,0)	(1,0)	(1,0)	(1,0)	(1,0)	(1,0)	(1,0)	(1,0)	(1,0)	(1,0)	(1,0)	(1,0)	(1,0)	
L1D -437>	(437,113)	(1,7)	(1,0)	(1,0)	(1,0)	(1,0)	(1,0)	(1,0)	(1,0)	(1,0)	(1,0)	(1,0)	(1,0)	(1,0)	(1,0)	(1,0)	
L1D -436>	(436,114)	(1,7)	(1,0)	(1,0)	(1,0)	(1,0)	(1,0)	(1,0)	(1,0)	(1,0)	(1,0)	(1,0)	(1,0)	(1,0)	(1,0)	(1,0)	
L1D -435>	(435,114)	(1,7)	(1,0)	(1,0)	(1,0)	(1,0)	(1,0)	(1,0)	(1,0)	(1,0)	(1,0)	(1,0)	(1,0)	(1,0)	(1,0)	(1,0)	
L1D -434>	(434,113)	(1,10)	(1,0)	(1,0)	(1,0)	(1,0)	(1,0)	(1,0)	(1,0)	(1,0)	(1,0)	(1,0)	(1,0)	(1,0)	(1,0)	(1,0)	
L1D -433>	(433,113)	(1,7)	(1,0)	(1,0)	(1,0)	(1,0)	(1,0)	(1,0)	(1,0)	(1,0)	(1,0)	(1,0)	(1,0)	(1,0)	(1,0)	(1,0)	
L1D -432>	(432,116)	(1,5)	(1,0)	(1,0)	(1,0)	(1,0)	(1,0)	(1,0)	(1,0)	(1,0)	(1,0)	(1,0)	(1,0)	(1,0)	(1,0)	(1,0)	
L1D -431>	(431,113)	(1,7)	(1,0)	(1,0)	(1,0)	(1,0)	(1,0)	(1,0)	(1,0)	(1,0)	(1,0)	(1,0)	(1,0)	(1,0)	(1,0)	(1,0)	
L1D -430>	(430,112)	(1,8)	(1,0)	(1,0)	(1,0)	(1,0)	(1,0)	(1,0)	(1,0)	(1,0)	(1,0)	(1,0)	(1,0)	(1,0)	(1,0)	(1,0)	
L1D -429>	(429,113)	(1,7)	(1,0)	(1,0)	(1,0)	(1,0)	(1,0)	(1,0)	(1,0)	(1,0)	(1,0)	(1,0)	(1,0)	(1,0)	(1,0)	(1,0)	
L1D -428>	(428,113)	(1,9)	(1,0)	(1,0)	(1,0)	(1,0)	(1,0)	(1,0)	(1,0)	(1,0)	(1,0)	(1,0)	(1,0)	(1,0)	(1,0)	(1,0)	
L1D -427>	(427,111)	(1,10)	(1,0)	(1,0)	(1,0)	(1,0)	(1,0)	(1,0)	(1,0)	(1,0)	(1,0)	(1,0)	(1,0)	(1,0)	(1,0)	(1,0)	
L1D -426>	(426,113)	(1,7)	(1,0)	(1,0)	(1,0)	(1,0)	(1,0)	(1,0)	(1,0)	(1,0)	(1,0)	(1,0)	(1,0)	(1,0)	(1,0)	(1,0)	
L1D -425>	(425,114)	(1,9)	(1,0)	(1,0)	(1,0)	(1,0)	(1,0)	(1,0)	(1,0)	(1,0)	(1,0)	(1,0)	(1,0)	(1,0)	(1,0)	(1,0)	
L1D -424>	(424,113)	(1,8)	(1,0)	(1,0)	(1,0)	(1,0)	(1,0)	(1,0)	(1,0)	(1,0)	(1,0)	(1,0)	(1,0)	(1,0)	(1,0)	(1,0)	
L1D -423>	(423,113)	(1,7)	(1,0)	(1,0)	(1,0)	(1,0)	(1,0)	(1,0)	(1,0)	(1,0)	(1,0)	(1,0)	(1,0)	(1,0)	(1,0)	(1,0)	
L1D -422>	(422,113)	(1,7)	(1,0)	(1,0)	(1,0)	(1,0)	(1,0)	(1,0)	(1,0)	(1,0)	(1,0)	(1,0)	(1,0)	(1,0)	(1,0)	(1,0)	
L1D -421>	(421,115)	(1,5)	(1,0)	(1,0)	(1,0)	(1,0)	(1,0)	(1,0)	(1,0)	(1,0)	(1,0)	(1,0)	(1,0)	(1,0)	(1,0)	(1,0)	
L1D -420>	(420,113)	(1,7)	(1,0)	(1,0)	(1,0)	(1,0)	(1,0)	(1,0)	(1,0)	(1,0)	(1,0)	(1,0)	(1,0)	(1,0)	(1,0)	(1,0)	
L1D -419>	(419,115)	(1,10)	(418,1)	(266,1)	(1,0)	(1,0)	(1,0)	(1,0)	(1,0)	(1,0)	(1,0)	(1,0)	(1,0)	(1,0)	(1,0)	(1,0)	
L1D -418>	(418,114)	(1,11)	(419,2)	(-1,1)	(1,0)	(1,0)	(1,0)	(1,0)	(1,0)	(1,0)	(1,0)	(1,0)	(1,0)	(1,0)	(1,0)	(1,0)	
L1D -417>	(417,113)	(1,7)	(1,0)	(1,0)	(1,0)	(1,0)	(1,0)	(1,0)	(1,0)	(1,0)	(1,0)	(1,0)	(1,0)	(1,0)	(1,0)	(1,0)	
L1D -416>	(416,111)	(1,9)	(1,0)	(1,0)	(1,0)	(1,0)	(1,0)	(1,0)	(1,0)	(1,0)	(1,0)	(1,0)	(1,0)	(1,0)	(1,0)	(1,0)	
L1D -415>	(415,113)	(1,7)	(1,0)	(1,0)	(1,0)	(1,0)	(1,0)	(1,0)	(1,0)	(1,0)	(1,0)	(1,0)	(1,0)	(1,0)	(1,0)	(1,0)	
L1D -414>	(414,114)	(1,6)	(1,0)	(1,0)	(1,0)	(1,0)	(1,0)	(1,0)	(1,0)	(1,0)	(1,0)	(1,0)	(1,0)	(1,0)	(1,0)	(1,0)	
L1D -413>	(413,113)	(1,8)	(1,0)	(1,0)	(1,0)	(1,0)	(1,0)	(1,0)	(1,0)	(1,0)	(1,0)	(1,0)	(1,0)	(1,0)	(1,0)	(1,0)	
L1D -412>	(412,113)	(1,7)	(2,1)	(1,0)	(1,0)	(1,0)	(1,0)	(1,0)	(1,0)	(1,0)	(1,0)	(1,0)	(1,0)	(1,0)	(1,0)	(1,0)	
L1D -411>	(411,113)	(1,7)	(1,0)	(1,0)	(1,0)	(1,0)	(1,0)	(1,0)	(1,0)	(1,0)	(1,0)	(1,0)	(1,0)	(1,0)	(1,0)	(1,0)	
L1D -410>	(410,115)	(1,5)	(2,1)	(1,0)	(1,0)	(1,0)	(1,0)	(1,0)	(1,0)	(1,0)	(1,0)	(1,0)	(1,0)	(1,0)	(1,0)	(1,0)	
L1D -409>	(409,114)	(1,6)	(1,0)	(1,0)	(1,0)	(1,0)	(1,0)	(1,0)	(1,0)	(1,0)	(1,0)	(1,0)	(1,0)	(1,0)	(1,0)	(1,0)	
L1D -408>	(408,112)	(1,8)	(2,1)	(1,0)	(1,0)	(1,0)	(1,0)	(1,0)	(1,0)	(1,0)	(1,0)	(1,0)	(1,0)	(1,0)	(1,0)	(1,0)	
L1D -407>	(407,113)	(1,7)	(1,0)	(1,0)	(1,0)	(1,0)	(1,0)	(1,0)	(1,0)	(1,0)	(1,0)	(1,0)	(1,0)	(1,0)	(1,0)	(1,0)	
L1D -406>	(406,113)	(1,7)	(1,0)	(1,0)	(1,0)	(1,0)	(1,0)	(1,0)	(1,0)	(1,0)	(1,0)	(1,0)	(1,0)	(1,0)	(1,0)	(1,0)	
L1D -405>	(405,111)	(1,9)	(1,0)	(1,0)	(1,0)	(1,0)	(1,0)	(1,0)	(1,0)	(1,0)	(1,0)	(1,0)	(1,0)	(1,0)	(1,0)	(1,0)	
L1D -404>	(404,113)	(1,7)	(1,0)	(1,0)	(1,0)	(1,0)	(1,0)	(1,0)	(1,0)	(1,0)	(1,0)	(1,0)	(1,0)	(1,0)	(1,0)	(1,0)	
L1D -403>	(403,115)	(1,5)	(1,0)	(1,0)	(1,0)	(1,0)	(1,0)	(1,0)	(1,0)	(1,0)	(1,0)	(1,0)	(1,0)	(1,0)	(1,0)	(1,0)	
L1D -402>	(402,113)	(1,9)	(1,0)	(1,0)	(1,0)	(1,0)	(1,0)	(1,0)	(1,0)	(1,0)	(1,0)	(1,0)	(1,0)	(1,0)	(1,0)	(1,0)	
L1D -401>	(401,113)	(1,8)	(0,8)	(1,0)	(1,0)	(1,0)	(1,0)	(1,0)	(1,0)	(1,0)	(1,0)	(1,0)	(1,0)	(1,0)	(1,0)	(1,0)	
L1D -400>	(400,112)	(1,9)	(2,1)	(1,0)	(1,0)	(1,0)	(1,0)	(1,0)	(1,0)	(1,0)	(1,0)	(1,0)	(1,0)	(1,0)	(1,0)	(1,0)	
L1D -399>	(399,114)	(1,6)	(1,0)	(1,0)	(1,0)	(1,0)	(1,0)	(1,0)	(1,0)	(1,0)	(1,0)	(1,0)	(1,0)	(1,0)	(1,0)	(1,0)	
L1D -398>	(398,113)	(1,8)	(1,0)	(1,0)	(1,0)	(1,0)	(1,0)	(1,0)	(1,0)	(1,0)	(1,0)	(1,0)	(1,0)	(1,0)	(1,0)	(1,0)	
L1D -397>	(397,112)	(1,8)	(1,0)	(1,0)	(1,0)	(1,0)	(1,0)	(1,0)	(1,0)	(1,0)	(1,0)	(1,0)	(1,0)	(1,0)	(1,0)	(1,0)	
L1D -396>	(396,113)	(1,8)	(2,1)	(1,0)	(1,0)	(1,0)	(1,0)	(1,0)	(1,0)	(1,0)	(1,0)	(1,0)	(1,0)	(1,0)	(1,0)	(1,0)	
L1D -395>	(395,113)	(1,7)	(1,0)	(1,0)	(1,0)	(1,0)	(1,0)	(1,0)	(1,0)	(1,0)	(1,0)	(1,0)	(1,0)	(1,0)	(1,0)	(1,0)	
L1D -394>	(394,111)	(1,10)	(1,0)	(1,0)	(1,0)	(1,0)	(1,0)	(1,0)	(1,0)	(1,0)	(1,0)	(1,0)	(1,0)	(1,0)	(1,0)	(1,0)	
L1D -393>	(393,113)	(1,7)	(1,0)	(1,0)	(1,0)	(1,0)	(1,0)	(1,0)	(1,0)	(1,0)	(1,0)	(1,0)	(1,0)	(1,0)	(1,0)	(1,0)	
L1D -392>	(392,113)	(1,8)	(1,0)	(1,0)	(1,0)	(1,0)	(1,0)	(1,0)	(1,0)	(1,0)	(1,0)	(1,0)	(1,0)	(1,0)	(1,0)	(1,0)	
L1D -391>	(391,114)	(1,7)	(1,0)	(1,0)	(1,0)	(1,0)	(1,0)	(1,0)	(1,0)	(1,0)	(1,0)	(1,0)	(1,0)	(1,0)	(1,0)	(1,0)	
L1D -390>	(390,113)	(1,7)	(1,0)	(1,0)	(1,0)	(1,0)	(1,0)	(1,0)	(1,0)	(1,0)	(1,0)	(1,0)	(1,0)	(1,0)	(1,0)	(1,0)	
L1D -389>	(389,113)	(1,8)	(1,0)	(1,0)	(1,0)	(1,0)	(1,0)	(1,0)	(1,0)	(1,0)	(1,0)	(1,0)	(1,0)	(1,0)	(1,0)	(1,0)	
L1D -388>	(388,115)	(1,5)	(1,0)	(1,0)	(1,0)	(1,0)	(1,0)	(1,0)	(1,0)	(1,0)	(1,0)	(1,0)	(1,0)	(1,0)	(1,0)	(1,0)	
L1D -387>	(387,113)	(1,9)	(1,0)	(1,0)	(1,0)	(1,0)	(1,0)	(1,0)	(1,0)	(1,0)	(1,0)	(1,0)	(1,0)	(1,0)	(1,0)	(1,0)	
L1D -386>	(386,112)	(1,8)	(1,0)	(1,0)	(1,0)	(1,0)	(1,0)	(1,0)	(1,0)	(1,0)	(1,0)	(1,0)	(1,0)	(1,0)	(1,0)	(1,0)	
L1D -385>	(385,113)	(1,7)	(1,0)	(1,0)	(1,0)	(1,0)	(1,0)	(1,0)	(1,0)	(1,0)	(1,0)	(1,0)	(1,0)	(1,0)	(1,0)	(1,0)	
L1D -384>	(384,113)	(1,8)	(2,1)	(1,0)	(1,0)	(1,0)	(1,0)	(1,0)	(1,0)	(1,0)	(1,0)	(1,0)	(1,0)	(1,0)	(1,0)	(1,0)	
L1D -383>	(383,111)	(1,10)	(0,1)	(1,0)	(1,0)	(1,0)	(1,0)	(1,0)	(1,0)	(1,0)	(1,0)	(1,0)	(1,0)	(1,0)	(1,0)	(1,0)	
L1D -382>	(382,113)	(1,8)	(2,1)	(1,0)	(1,0)	(1,0)	(1,0)	(1,0)	(1,0)	(1,0)	(1,0)	(1,0)	(1,0)	(1,0)	(1,0)	(1,0)	
L1D -381>	(381,115)	(1,6)	(1,0)	(1,0)	(1,0)	(1,0)	(1,0)	(1,0)	(1,0)	(1,0)	(1,0)	(1,0)	(1,0)	(1,0)	(1,0)	(1,0)	
L1D -380>	(380,114)	(1,6)	(2,1)	(1,0)	(1,0)	(1,0)	(1,0)	(1,0)	(1,0)	(1,0)	(1,0)	(1,0)	(1,0)	(1,0)	(1,0)	(1,0)	
L1D -379>	(379,114)	(1,6)	(0,1)	(1,0)	(1,0)	(1,0)	(1,0)	(1,0)	(1,0)	(1,0)	(1,0)	(1,0)	(1,0)	(1,0)	(1,0)	(1,0)	
L1D -378>	(378,113)	(1,7)	(1,0)	(1,0)	(1,0)	(1,0)	(1,0)	(1,0)	(1,0)	(1,0)	(1,0)	(1,0)	(1,0)	(1,0)	(1,0)	(1,0)	
L1D -377>	(377,115)	(1,6)	(1,0)	(1,0)	(1,0)	(1,0)	(1,0)	(1,0)	(1,0)	(1,0)	(1,0)	(1,0)	(1,0)	(1,0)	(1,0)	(1,0)	
L1D -376>	(376,114)	(1,6)	(1,0)	(1,0)	(1,0)	(1,0)	(1,0)	(1,0)	(1,0)	(1,0)	(1,0)	(1,0)	(1,0)	(1,0)	(1,0)	(1,0)	
L1D -375>	(375,113)	(1,7)	(1,0)	(1,0)	(1,0)	(1,0)	(1,0)	(1,0)	(1,0)	(1,0)	(1,0)	(1,0)	(1,0)	(1,0)	(1,0)	(1,0)	
L1D -374>	(374,112)	(1,8)	(1,0)	(1,0)	(1,0)	(1,0)	(1,0)	(1,0)	(1,0)	(1,0)	(1,0)	(1,0)	(1,0)	(1,0)	(1,0)	(1,0)	
L1D -373>	(373,114)	(1,6)	(1,0)	(1,0)	(1,0)	(1,0)	(1,0)	(1,0)	(1,0)	(1,0)	(1,0)	(1,0)	(1,0)	(1,0)	(1,0)	(1,0)	
L1D -372>	(372,112)	(1,8)	(1,0)	(1,0)	(1,0)	(1,0)	(1,0)	(1,0)	(1,0)	(1,0)	(1,0)	(1,0)	(1,0)	(1,0)	(1,0)	(1,0)	
L1D -371>	(371,113)	(1,7)	(1,0)	(1,0)	(1,0)	(1,0)	(1,0)	(1,0)	(1,0)	(1,0)	(1,0)	(1,0)	(1,0)	(1,0)	(1,0)	(1,0)	
L1D -370>	(370,113)	(1,7)	(1,0)	(1,0)	(1,0)	(1,0)	(1,0)	(1,0)	(1,0)	(1,0)	(1,0)	(1,0)	(1,0)	(1,0)	(1,0)	(1,0)	
L1D -369>	(369,113)	(1,7)	(1,0)	(1,0)	(1,0)	(1,0)	(1,0)	(1,0)	(1,0)	(1,0)	(1,0)	(1,0)	(1,0)	(1,0)	(1,0)	(1,0)	
L1D -368>	(368,111)	(1,9)	(1,0)	(1,0)	(1,0)	(1,0)	(1,0)	(1,0)	(1,0)	(1,0)	(1,0)	(1,0)	(1,0)	(1,0)	(1,0)	(1,0)	
L1D -367>	(367,112)	(1,10)	(1,0)	(1,0)	(1,0)	(1,0)	(1,0)	(1,0)	(1,0)	(1,0)	(1,0)	(1,0)	(1,0)	(1,0)	(1,0)	(1,0)	
L1D -366>	(366,115)	(1,5)	(1,0)	(1,0)	(1,0)	(1,0)	(1,0)	(1,0)	(1,0)	(1,0)	(1,0)	(1,0)	(1,0)	(1,0)	(1,0)	(1,0)	
L1D -365>	(365,114)	(1,6)	(1,0)	(1,0)	(1,0)	(1,0)	(1,0)	(1,0)	(1,0)	(1,0)	(1,0)	(1,0)	(1,0)	(1,0)	(1,0)	(1,0)	
L1D -364>	(364,112)	(1,8)	(1,0)	(1,0)	(1,0)	(1,0)	(1,0)	(1,0)	(1,0)	(1,0)	(1,0)	(1,0)	(1,0)	(1,0)	(1,0)	(1,0)	
L1D -363>	(363,103)	(1,7)	(2,1)	(1,0)	(1,0)	(1,0)	(1,0)	(1,0)	(1,0)	(1,0)	(1,0)	(1,0)	(1,0)	(1,0)	(1,0)	(1,0)	
L1D -362>	(362,102)	(1,8)	(265,1)	(0,1)	(1,0)	(1,0)	(1,0)	(1,0)	(1,0)	(1,0)	(1,0)	(1,0)	(1,0)	(1,0)	(1,0)	(1,0)	
L1D -361>	(361,100)	(1,9)	(1,0)	(1,0)	(1,0)	(1,0)	(1,0)	(1,0)	(1,0)	(1,0)	(1,0)	(1,0)	(1,0)	(1,0)	(1,0)	(1,0)	
L1D -360>	(360,100)	(1,9)	(264,1)	(361,1)	(1,0)	(1,0)	(1,0)	(1,0)	(1,0)	(1,0)	(1,0)	(1,0)	(1,0)	(1,0)	(1,0)	(1,0)	
L1D -359>	(359,103)	(1,5)	(1,0)	(1,0)	(1,0)	(1,0)	(1,0)	(1,0)	(1,0)	(1,0)	(1,0)	(1,0)	(1,0)	(1,0)	(1,0)	(1,0)	
L1D -358>	(358,101)	(1,8)	(1,0)	(1,0)	(1,0)	(1,0)	(1,0)	(1,0)	(1,0)	(1,0)	(1,0)	(1,0)	(1,0)	(1,0)	(1,0)	(1,0)	
L1D -357>	(357,101)	(1,7)	(1,0)	(1,0)	(1,0)	(1,0)	(1,0)	(1,0)	(1,0)	(1,0)	(1,0)	(1,0)	(1,0)	(1,0)	(1,0)	(1,0)	
L1D -356>	(356,100)	(1,8)	(1,0)	(1,0)	(1,0)	(1,0)	(1,0)	(1,0)	(1,0)	(1,0)	(1,0)	(1,0)	(1,0)	(1,0)	(1,0)	(1,0)	
L1D -355>	(355,104)	(1,5)	(1,0)	(1,0)	(1,0)	(1,0)	(1,0)	(1,0)	(1,0)	(1,0)	(1,0)	(1,0)	(1,0)	(1,0)	(1,0)	(1,0)	
L1D -354>	(354,103)	(1,6)	(1,0)	(1,0)	(1,0)	(1,0)	(1,0)	(1,0)	(1,0)	(1,0)	(1,0)	(1,0)	(1,0)	(1,0)	(1,0)	(1,0)	
L1D -353>	(353,101)	(1,7)	(1,0)	(1,0)	(1,0)	(1,0)	(1,0)	(1,0)	(1,0)	(1,0)	(1,0)	(1,0)	(1,0)	(1,0)	(1,0)	(1,0)	
L1D -352>	(352,102)	(1,8)	(1,0)	(1,0)	(1,0)	(1,0)	(1,0)	(1,0)	(1,0)	(1,0)	(1,0)	(1,0)	(1,0)	(1,0)	(1,0)	(1,0)	
L1D -351>	(351,103)	(1,6)	(1,0)	(1,0)	(1,0)	(1,0)	(1,0)	(1,0)	(1,0)	(1,0)	(1,0)	(1,0)	(1,0)	(1,0)	(1,0)	(1,0)	
L1D -350>	(350,100)	(1,10)	(1,0)	(1,0)	(1,0)	(1,0)	(1,0)	(1,0)	(1,0)	(1,0)	(1,0)	(1,0)	(1,0)	(1,0)	(1,0)	(1,0)	
L1D -349>	(349,101)	(1,8)	(1,0)	(1,0)	(1,0)	(1,0)	(1,0)	(1,0)	(1,0)	(1,0)	(1,0)	(1,0)	(1,0)	(1,0)	(1,0)	(1,0)	
L1D -348>	(348,103)	(1,5)	(1,0)	(1,0)	(1,0)	(1,0)	(1,0)	(1,0)	(1,0)	(1,0)	(1,0)	(1,0)	(1,0)	(1,0)	(1,0)	(1,0)	
L1D -347>	(347,102)	(1,6)	(1,0)	(1,0)	(1,0)	(1,0)	(1,0)	(1,0)	(1,0)	(1,0)	(1,0)	(1,0)	(1,0)	(1,0)	(1,0)	(1,0)	
L1D -346>	(346,102)	(1,8)	(1,0)	(1,0)	(1,0)	(1,0)	(1,0)	(1,0)	(1,0)	(1,0)	(1,0)	(1,0)	(1,0)	(1,0)	(1,0)	(1,0)	
L1D -345>	(345,102)	(1,6)	(1,0)	(1,0)	(1,0)	(1,0)	(1,0)	(1,0)	(1,0)	(1,0)	(1,0)	(1,0)	(1,0)	(1,0)	(1,0)	(1,0)	
L1D -344>	(344,104)	(1,5)	(1,0)	(1,0)	(1,0)	(1,0)	(1,0)	(1,0)	(1,0)	(1,0)	(1,0)	(1,0)	(1,0)	(1,0)	(1,0)	(1,0)	
L1D -343>	(343,102)	(1,8)	(0,1)	(1,0)	(1,0)	(1,0)	(1,0)	(1,0)	(1,0)	(1,0)	(1,0)	(1,0)	(1,0)	(1,0)	(1,0)	(1,0)	
L1D -342>	(342,101)	(1,10)	(1,0)	(1,0)	(1,0)	(1,0)	(1,0)	(1,0)	(1,0)	(1,0)	(1,0)	(1,0)	(1,0)	(1,0)	(1,0)	(1,0)	
L1D -341>	(341,102)	(1,8)	(1,0)	(1,0)	(1,0)	(1,0)	(1,0)	(1,0)	(1,0)	(1,0)	(1,0)	(1,0)	(1,0)	(1,0)	(1,0)	(1,0)	
L1D -340>	(340,102)	(1,7)	(1,0)	(1,0)	(1,0)	(1,0)	(1,0)	(1,0)	(1,0)	(1,0)	(1,0)	(1,0)	(1,0)	(1,0)	(1,0)	(1,0)	
L1D -339>	(339,100)	(1,8)	(1,0)	(1,0)	(1,0)	(1,0)	(1,0)	(1,0)	(1,0)	(1,0)	(1,0)	(1,0)	(1,0)	(1,0)	(1,0)	(1,0)	
L1D -338>	(338,101)	(1,7)	(0,1)	(1,0)	(1,0)	(1,0)	(1,0)	(1,0)	(1,0)	(1,0)	(1,0)	(1,0)	(1,0)	(1,0)	(1,0)	(1,0)	
L1D -337>	(337,102)	(1,8)	(0,1)	(1,0)	(1,0)	(1,0)	(1,0)	(1,0)	(1,0)	(1,0)	(1,0)	(1,0)	(1,0)	(1,0)	(1,0)	(1,0)	
L1D -336>	(336,101)	(1,8)	(1,0)	(1,0)	(1,0)	(1,0)	(1,0)	(1,0)	(1,0)	(1,0)	(1,0)	(1,0)	(1,0)	(1,0)	(1,0)	(1,0)	
L1D -335>	(335,102)	(1,6)	(1,0)	(1,0)	(1,0)	(1,0)	(1,0)	(1,0)	(1,0)	(1,0)	(1,0)	(1,0)	(1,0)	(1,0)	(1,0)	(1,0)	
L1D -334>	(334,101)	(1,8)	(0,1)	(1,0)	(1,0)	(1,0)	(1,0)	(1,0)	(1,0)	(1,0)	(1,0)	(1,0)	(1,0)	(1,0)	(1,0)	(1,0)	
L1D -333>	(333,104)	(1,6)	(1,0)	(1,0)	(1,0)	(1,0)	(1,0)	(1,0)	(1,0)	(1,0)	(1,0)	(1,0)	(1,0)	(1,0)	(1,0)	(1,0)	
L1D -332>	(332,102)	(1,6)	(1,0)	(1,0)	(1,0)	(1,0)	(1,0)	(1,0)	(1,0)	(1,0)	(1,0)	(1,0)	(1,0)	(1,0)	(1,0)	(1,0)	
L1D -331>	(331,101)	(1,7)	(1,0)	(1,0)	(1,0)	(1,0)	(1,0)	(1,0)	(1,0)	(1,0)	(1,0)	(1,0)	(1,0)	(1,0)	(1,0)	(1,0)	
L1D -330>	(330,101)	(1,8)	(0,1)	(1,0)	(1,0)	(1,0)	(1,0)	(1,0)	(1,0)	(1,0)	(1,0)	(1,0)	(1,0)	(1,0)	(1,0)	(1,0)	
L1D -329>	(329,100)	(1,8)	(86,1)	(0,1)	(87,1)	(88,1)	(89,1)	(90,1)	(91,1)	(2,1)	(92,1)	(93,1)	(94,1)	(1,0)	(1,0)	(1,0)	
L1D -328>	(328,100)	(1,8)	(86,2)	(85,1)	(87,1)	(88,2)	(329,2)	(89,1)	(91,1)	(92,1)	(94,1)	(1,0)	(1,0)	(1,0)	(1,0)	(1,0)	
L1D -327>	(327,101)	(1,7)	(0,2)	(84,1)	(86,1)	(87,2)	(89,2)	(88,1)	(91,3)	(92,2)	(90,1)	(328,1)	(1,0)	(1,0)	(1,0)	(1,0)	
L1D -326>	(326,103)	(1,5)	(86,2)	(84,1)	(0,1)	(327,1)	(88,3)	(85,1)	(89,2)	(90,3)	(87,1)	(91,2)	(92,2)	(1,0)	(1,0)	(1,0)	
L1D -325>	(325,101)	(1,8)	(326,3)	(85,2)	(83,1)	(82,1)	(86,2)	(0,2)	(87,2)	(84,1)	(88,2)	(91,3)	(90,2)	(93,2)	(94,1)	(1,0)	
L1D -324>	(324,101)	(1,7)	(0,4)	(325,1)	(81,1)	(85,2)	(82,1)	(88,4)	(86,3)	(83,1)	(84,1)	(90,2)	(89,4)	(87,3)	(91,1)	(1,0)	
L1D -323>	(323,102)	(1,9)	(86,4)	(85,2)	(83,2)	(0,5)	(324,4)	(81,1)	(87,3)	(82,1)	(88,3)	(84,2)	(89,2)	(93,1)	(91,1)	(1,0)	
L1D -322>	(322,105)	(1,3)	(323,6)	(84,5)	(92,3)	(81,2)	(93,1)	(85,4)	(0,3)	(80,1)	(86,2)	(83,3)	(89,3)	(90,3)	(87,3)	(91,1)	
L1D -321>	(321,103)	(1,5)	(86,4)	(0,4)	(322,5)	(80,3)	(78,1)	(87,4)	(84,3)	(81,2)	(85,4)	(82,3)	(88,3)	(83,2)	(89,5)	(91,1)	
L1D -320>	(320,102)	(1,8)	(85,5)	(84,4)	(82,4)	(0,2)	(90,1)	(321,5)	(80,2)	(78,1)	(86,2)	(83,2)	(81,3)	(79,1)	(87,4)	(88,2)	
L1D -319>	(319,102)	(1,6)	(0,7)	(86,1)	(81,2)	(80,3)	(78,1)	(76,1)	(87,3)	(85,4)	(84,4)	(320,6)	(77,1)	(88,4)	(82,3)	(79,1)	
L1D -318>	(318,100)	(1,6)	(85,4)	(0,5)	(319,5)	(79,4)	(77,2)	(76,2)	(82,1)	(86,4)	(83,2)	(87,5)	(84,4)	(81,2)	(78,2)	(88,4)	
L1D -317>	(317,100)	(1,10)	(83,6)	(89,1)	(0,6)	(318,7)	(75,1)	(74,1)	(84,5)	(79,1)	(76,1)	(86,3)	(85,4)	(77,1)	(87,2)	(82,3)	
L1D -316>	(316,101)	(1,9)	(317,4)	(80,4)	(79,3)	(77,2)	(0,4)	(88,1)	(84,3)	(82,3)	(75,1)	(81,4)	(76,2)	(87,4)	(85,3)	(83,3)	
L1D -315>	(315,103)	(1,5)	(0,6)	(316,5)	(78,4)	(80,1)	(75,3)	(73,1)	(83,4)	(82,2)	(79,4)	(77,3)	(74,1)	(86,5)	(87,2)	(84,3)	
L1D -314>	(314,101)	(1,7)	(0,3)	(315,6)	(74,3)	(83,1)	(71,1)	(80,4)	(78,2)	(75,2)	(81,3)	(79,4)	(76,3)	(73,1)	(84,3)	(82,4)	
L1D -313>	(313,102)	(1,7)	(81,1)	(80,3)	(79,4)	(78,6)	(76,5)	(0,4)	(314,7)	(70,1)	(82,4)	(74,2)	(71,1)	(83,3)	(77,4)	(75,3)	
L1D -312>	(312,101)	(1,8)	(77,5)	(80,1)	(74,2)	(72,2)	(0,5)	(78,2)	(313,7)	(71,2)	(70,1)	(81,1)	(79,2)	(76,3)	(73,3)	(82,3)	
L1D -311>	(311,104)	(1,4)	(79,5)	(78,5)	(76,1)	(312,5)	(73,4)	(71,2)	(70,1)	(68,1)	(77,2)	(74,4)	(69,1)	(80,2)	(75,2)	(72,3)	
L1D -310>	(310,102)	(1,8)	(77,5)	(75,1)	(0,3)	(311,6)	(69,3)	(67,1)	(78,4)	(73,1)	(70,2)	(79,4)	(76,3)	(74,3)	(71,3)	(80,3)	
L1D -309>	(309,101)	(1,9)	(310,6)	(76,5)	(74,4)	(73,5)	(71,3)	(0,4)	(81,2)	(77,4)	(69,2)	(78,2)	(75,3)	(70,3)	(82,1)	(79,4)	
L1D -308>	(308,102)	(1,7)	(0,8)	(73,1)	(70,3)	(69,2)	(67,1)	(65,1)	(76,3)	(74,4)	(66,1)	(77,5)	(71,3)	(68,2)	(78,4)	(309,7)	
L1D -307>	(307,102)	(1,7)	(74,4)	(0,5)	(308,5)	(68,4)	(66,2)	(65,2)	(69,2)	(75,2)	(72,1)	(76,5)	(73,5)	(70,2)	(67,2)	(77,4)	
L1D -306>	(306,99)	(1,10)	(72,5)	(73,1)	(0,5)	(307,6)	(64,2)	(63,1)	(74,4)	(71,5)	(68,1)	(66,2)	(65,1)	(75,3)	(69,3)	(76,2)	
L1D -305>	(305,101)	(1,8)	(306,7)	(69,5)	(68,3)	(77,1)	(0,3)	(62,1)	(73,4)	(64,1)	(70,4)	(67,3)	(65,2)	(74,4)	(71,3)	(76,3)	
L1D -304>	(304,102)	(1,9)	(0,3)	(305,6)	(67,6)	(75,3)	(64,2)	(70,1)	(72,5)	(71,1)	(68,4)	(66,4)	(74,4)	(73,4)	(69,4)	(63,1)	
L1D -303>	(303,102)	(1,8)	(72,1)	(304,6)	(63,3)	(61,2)	(60,1)	(69,4)	(67,2)	(64,1)	(70,3)	(68,5)	(65,3)	(62,1)	(73,3)	(71,4)	
L1D -302>	(302,102)	(1,6)	(70,3)	(69,3)	(76,2)	(67,5)	(65,4)	(0,7)	(303,6)	(68,1)	(71,3)	(64,5)	(63,2)	(60,1)	(72,3)	(66,4)	
L1D -301>	(301,102)	(1,6)	(66,5)	(69,1)	(63,4)	(61,3)	(0,3)	(67,3)	(302,5)	(59,1)	(70,1)	(68,3)	(65,4)	(62,2)	(60,1)	(71,3)	
L1D -300>	(300,104)	(1,3)	(68,5)	(67,5)	(0,7)	(301,6)	(62,4)	(71,3)	(65,1)	(57,1)	(66,1)	(63,4)	(58,1)	(64,2)	(61,3)	(70,4)	
L1D -299>	(299,102)	(1,8)	(66,5)	(64,4)	(0,6)	(300,7)	(58,3)	(72,1)	(67,5)	(65,3)	(62,2)	(59,2)	(68,3)	(63,4)	(69,2)	(70,2)	
L1D -298>	(298,101)	(1,7)	(299,5)	(65,4)	(63,1)	(62,4)	(60,3)	(0,5)	(55,1)	(66,3)	(58,2)	(56,1)	(67,4)	(64,3)	(59,3)	(57,1)	
L1D -297>	(297,102)	(1,6)	(0,4)	(61,4)	(64,1)	(58,2)	(56,1)	(54,1)	(65,2)	(62,4)	(57,3)	(55,1)	(66,4)	(63,3)	(60,3)	(67,4)	
L1D -296>	(296,103)	(1,5)	(63,4)	(0,5)	(297,6)	(57,3)	(55,2)	(54,2)	(58,2)	(64,3)	(61,1)	(65,5)	(62,3)	(56,2)	(66,4)	(60,3)	
L1D -295>	(295,100)	(1,10)	(61,5)	(59,4)	(0,4)	(296,9)	(53,2)	(62,1)	(63,5)	(57,1)	(54,1)	(64,4)	(60,2)	(58,3)	(55,1)	(65,2)	
L1D -294>	(294,101)	(1,7)	(295,6)	(66,1)	(57,3)	(55,3)	(0,3)	(51,1)	(62,4)	(60,4)	(53,1)	(59,4)	(56,3)	(54,2)	(65,3)	(63,4)	
L1D -293>	(293,102)	(1,7)	(60,3)	(0,5)	(294,7)	(56,6)	(59,1)	(53,2)	(51,1)	(292,3)	(61,4)	(57,4)	(55,3)	(62,4)	(58,3)	(52,1)	
L1D -292>	(292,101)	(1,8)	(0,6)	(293,6)	(61,1)	(49,1)	(58,4)	(56,2)	(54,3)	(53,2)	(52,2)	(59,3)	(57,4)	(51,1)	(62,3)	(60,4)	
L1D -291>	(291,103)	(1,6)	(59,4)	(57,1)	(56,7)	(51,2)	(0,3)	(292,14)	(48,2)	(53,2)	(60,3)	(52,3)	(49,2)	(61,3)	(58,3)	(55,4)	
L1D -290>	(290,103)	(1,5)	(55,6)	(58,1)	(52,4)	(50,4)	(48,3)	(0,7)	(47,1)	(56,3)	(291,4)	(49,3)	(59,3)	(57,2)	(54,5)	(51,4)	
L1D -289>	(289,105)	(1,4)	(57,4)	(56,7)	(0,9)	(290,8)	(51,7)	(49,5)	(48,4)	(47,3)	(55,1)	(54,3)	(52,7)	(53,5)	(50,6)	(59,5)	
L1D -288>	(288,103)	(1,5)	(55,2)	(53,9)	(0,3)	(48,6)	(289,5)	(47,6)	(46,2)	(45,2)	(51,6)	(49,6)	(57,3)	(54,6)	(52,8)	(50,6)	
L1D -287>	(287,102)	(1,9)	(288,5)	(50,7)	(52,7)	(51,9)	(49,9)	(48,8)	(47,6)	(0,5)	(46,4)	(45,3)	(56,1)	(55,5)	(54,4)	(53,7)	
L1D -286>	(286,101)	(1,7)	(0,5)	(50,10)	(48,8)	(47,8)	(46,6)	(45,4)	(44,3)	(53,2)	(54,6)	(52,8)	(51,8)	(49,7)	(287,5)	(55,6)	
L1D -285>	(285,103)	(1,6)	(54,2)	(0,5)	(48,10)	(47,8)	(52,7)	(46,9)	(45,6)	(44,6)	(43,4)	(42,2)	(53,8)	(50,9)	(49,9)	(51,10)	
L1D -284>	(284,98)	(1,11)	(50,2)	(48,12)	(47,9)	(46,7)	(0,8)	(45,5)	(44,5)	(43,4)	(285,8)	(42,4)	(41,2)	(52,10)	(51,10)	(49,10)	
L1D -283>	(283,101)	(1,7)	(284,7)	(48,12)	(47,12)	(46,10)	(45,10)	(44,7)	(43,6)	(42,4)	(0,1)	(41,2)	(40,2)	(49,12)	(50,10)	(51,8)	
L1D -282>	(282,101)	(1,7)	(49,11)	(0,6)	(48,13)	(47,11)	(46,11)	(283,5)	(45,10)	(44,9)	(43,7)	(42,6)	(41,4)	(40,3)	(51,2)	(50,11)	
L1D -281>	(281,101)	(1,11)	(48,13)	(47,13)	(46,13)	(45,10)	(49,2)	(44,9)	(43,7)	(42,7)	(282,6)	(41,7)	(40,4)	(39,3)	(38,2)	(51,9)	
L1D -280>	(280,101)	(1,10)	(48,13)	(47,13)	(46,15)	(45,15)	(49,11)	(43,11)	(50,1)	(41,7)	(0,3)	(40,5)	(39,4)	(38,3)	(281,7)	(37,2)	
L1D -279>	(279,101)	(1,8)	(47,14)	(46,11)	(45,13)	(44,12)	(43,10)	(42,9)	(41,7)	(40,5)	(39,4)	(50,2)	(49,9)	(48,11)	(0,3)	(280,5)	
L1D -278>	(278,104)	(1,4)	(46,14)	(45,14)	(44,10)	(49,2)	(43,8)	(42,8)	(41,7)	(279,7)	(40,7)	(39,4)	(38,3)	(37,2)	(47,10)	(48,10)	
L1D -277>	(277,103)	(1,6)	(45,14)	(44,11)	(43,10)	(42,9)	(41,7)	(40,5)	(49,6)	(39,3)	(0,1)	(50,5)	(278,5)	(46,10)	(47,10)	(48,8)	
L1D -276>	(276,102)	(1,33)	(44,9)	(277,3)	(43,10)	(42,9)	(41,7)	(40,6)	(39,4)	(38,4)	(49,2)	(45,10)	(0,126)	(46,11)	(47,8)	(48,6)	
L1D -275>	(275,50)	(1,69)	(43,4)	(0,2)	(42,3)	(41,3)	(40,2)	(39,3)	(47,1)	(37,1)	(44,5)	(45,5)	(2,3)	(46,4)	(276,2)	(48,3)	
L1D -274>	(274,102)	(1,7)	(42,9)	(41,8)	(40,6)	(39,4)	(49,2)	(38,2)	(275,1)	(43,8)	(44,9)	(45,7)	(46,7)	(2,1)	(47,5)	(48,4)	
L1D -273>	(273,100)	(1,9)	(41,8)	(40,4)	(39,4)	(38,2)	(37,2)	(42,8)	(49,1)	(274,3)	(43,8)	(44,8)	(45,9)	(46,6)	(47,6)	(48,3)	
L1D -272>	(272,100)	(1,8)	(40,6)	(273,3)	(39,4)	(38,3)	(48,1)	(41,5)	(42,5)	(43,5)	(0,1)	(44,4)	(45,5)	(2,1)	(46,5)	(47,3)	
L1D -271>	(271,103)	(1,6)	(39,4)	(38,3)	(0,4)	(37,1)	(40,4)	(41,5)	(42,4)	(43,5)	(44,5)	(272,1)	(45,4)	(46,3)	(47,1)	(1,0)	
L1D -270>	(270,101)	(1,7)	(38,2)	(37,1)	(39,2)	(0,2)	(40,3)	(41,3)	(42,3)	(43,2)	(44,3)	(45,3)	(46,1)	(1,0)	(1,0)	(1,0)	
L1D -269>	(269,101)	(1,16)	(37,1)	(38,2)	(39,2)	(40,1)	(270,2)	(41,1)	(0,2)	(42,1)	(43,1)	(44,1)	(45,1)	(1,0)	(1,0)	(1,0)	
L1D -268>	(268,101)	(1,8)	(0,1)	(1,0)	(1,0)	(1,0)	(1,0)	(1,0)	(1,0)	(1,0)	(1,0)	(1,0)	(1,0)	(1,0)	(1,0)	(1,0)	
L1D -267>	(267,104)	(1,5)	(0,1)	(1,0)	(1,0)	(1,0)	(1,0)	(1,0)	(1,0)	(1,0)	(1,0)	(1,0)	(1,0)	(1,0)	(1,0)	(1,0)	
L1D -266>	(267,15)	(1,67)	(255,9)	(266,0)	(2,5)	(420,0)	(419,0)	(1,0)	(1,0)	(1,0)	(1,0)	(1,0)	(1,0)	(1,0)	(1,0)	(1,0)	
L1D -265>	(-1,104)	(1,6)	(0,30)	(2,40)	(254,2)	(265,0)	(362,0)	(418,0)	(266,15)	(1,0)	(1,0)	(1,0)	(1,0)	(1,0)	(1,0)	(1,0)	
L1D -264>	(1,124)	(265,49)	(253,24)	(-1,0)	(0,0)	(2,1)	(266,0)	(1,0)	(1,0)	(1,0)	(1,0)	(1,0)	(1,0)	(1,0)	(1,0)	(1,0)	
L1D -263>	(-1,80)	(264,25)	(263,0)	(1,1)	(1,0)	(1,0)	(1,0)	(1,0)	(1,0)	(1,0)	(1,0)	(1,0)	(1,0)	(1,0)	(1,0)	(1,0)	
L1D -262>	(263,33)	(262,100)	(1,10)	(1,0)	(1,0)	(1,0)	(1,0)	(1,0)	(1,0)	(1,0)	(1,0)	(1,0)	(1,0)	(1,0)	(1,0)	(1,0)	
L1D -261>	(261,101)	(1,9)	(263,1)	(1,0)	(1,0)	(1,0)	(1,0)	(1,0)	(1,0)	(1,0)	(1,0)	(1,0)	(1,0)	(1,0)	(1,0)	(1,0)	
L1D -260>	(260,103)	(1,5)	(1,0)	(1,0)	(1,0)	(1,0)	(1,0)	(1,0)	(1,0)	(1,0)	(1,0)	(1,0)	(1,0)	(1,0)	(1,0)	(1,0)	
L1D -259>	(259,102)	(1,7)	(1,0)	(1,0)	(1,0)	(1,0)	(1,0)	(1,0)	(1,0)	(1,0)	(1,0)	(1,0)	(1,0)	(1,0)	(1,0)	(1,0)	
L1D -258>	(258,102)	(1,6)	(1,0)	(1,0)	(1,0)	(1,0)	(1,0)	(1,0)	(1,0)	(1,0)	(1,0)	(1,0)	(1,0)	(1,0)	(1,0)	(1,0)	
L1D -257>	(257,102)	(1,8)	(1,0)	(1,0)	(1,0)	(1,0)	(1,0)	(1,0)	(1,0)	(1,0)	(1,0)	(1,0)	(1,0)	(1,0)	(1,0)	(1,0)	
L1D -256>	(256,103)	(1,7)	(2,1)	(1,0)	(1,0)	(1,0)	(1,0)	(1,0)	(1,0)	(1,0)	(1,0)	(1,0)	(1,0)	(1,0)	(1,0)	(1,0)	
L1D -255>	(255,102)	(1,6)	(1,0)	(1,0)	(1,0)	(1,0)	(1,0)	(1,0)	(1,0)	(1,0)	(1,0)	(1,0)	(1,0)	(1,0)	(1,0)	(1,0)	
L1D -254>	(254,101)	(1,7)	(1,0)	(1,0)	(1,0)	(1,0)	(1,0)	(1,0)	(1,0)	(1,0)	(1,0)	(1,0)	(1,0)	(1,0)	(1,0)	(1,0)	
L1D -253>	(253,102)	(1,6)	(0,1)	(1,0)	(1,0)	(1,0)	(1,0)	(1,0)	(1,0)	(1,0)	(1,0)	(1,0)	(1,0)	(1,0)	(1,0)	(1,0)	
L1D -252>	(252,101)	(1,5)	(0,1)	(1,0)	(1,0)	(1,0)	(1,0)	(1,0)	(1,0)	(1,0)	(1,0)	(1,0)	(1,0)	(1,0)	(1,0)	(1,0)	
L1D -251>	(251,100)	(1,11)	(1,0)	(1,0)	(1,0)	(1,0)	(1,0)	(1,0)	(1,0)	(1,0)	(1,0)	(1,0)	(1,0)	(1,0)	(1,0)	(1,0)	
L1D -250>	(250,102)	(1,7)	(1,0)	(1,0)	(1,0)	(1,0)	(1,0)	(1,0)	(1,0)	(1,0)	(1,0)	(1,0)	(1,0)	(1,0)	(1,0)	(1,0)	
L1D -249>	(249,101)	(1,7)	(1,0)	(1,0)	(1,0)	(1,0)	(1,0)	(1,0)	(1,0)	(1,0)	(1,0)	(1,0)	(1,0)	(1,0)	(1,0)	(1,0)	
L1D -248>	(248,101)	(1,13)	(1,0)	(1,0)	(1,0)	(1,0)	(1,0)	(1,0)	(1,0)	(1,0)	(1,0)	(1,0)	(1,0)	(1,0)	(1,0)	(1,0)	
L1D -247>	(247,102)	(1,7)	(1,0)	(1,0)	(1,0)	(1,0)	(1,0)	(1,0)	(1,0)	(1,0)	(1,0)	(1,0)	(1,0)	(1,0)	(1,0)	(1,0)	
L1D -246>	(246,101)	(1,8)	(1,0)	(1,0)	(1,0)	(1,0)	(1,0)	(1,0)	(1,0)	(1,0)	(1,0)	(1,0)	(1,0)	(1,0)	(1,0)	(1,0)	
L1D -245>	(245,104)	(1,6)	(1,0)	(1,0)	(1,0)	(1,0)	(1,0)	(1,0)	(1,0)	(1,0)	(1,0)	(1,0)	(1,0)	(1,0)	(1,0)	(1,0)	
L1D -244>	(244,102)	(1,9)	(245,2)	(1,0)	(1,0)	(1,0)	(1,0)	(1,0)	(1,0)	(1,0)	(1,0)	(1,0)	(1,0)	(1,0)	(1,0)	(1,0)	
L1D -243>	(232,123)	(0,11)	(-72,1)	(-61,1)	(-50,1)	(-39,1)	(244,1)	(-20,1)	(243,90)	(1,6)	(2,1)	(1,0)	(1,0)	(1,0)	(1,0)	(1,0)	
L1D -242>	(0,9)	(-67,1)	(-63,1)	(-62,1)	(231,111)	(-57,1)	(-52,1)	(-51,1)	(-46,1)	(-41,1)	(-40,1)	(242,78)	(1,7)	(1,0)	(1,0)	(1,0)	
L1D -241>	(-48,1)	(0,7)	(-45,1)	(-43,1)	(-42,1)	(241,68)	(-65,0)	(230,76)	(-64,0)	(-61,0)	(-59,0)	(-56,0)	(-54,0)	(-53,0)	(1,5)	(1,0)	
L1D -240>	(0,7)	(-55,1)	(229,89)	(240,56)	(-71,0)	(-60,0)	(-59,0)	(-58,0)	(-53,0)	(-48,0)	(-47,0)	(-42,0)	(1,5)	(1,0)	(1,0)	(1,0)	
L1D -239>	(-47,1)	(0,5)	(-45,1)	(239,44)	(228,90)	(-60,0)	(-58,1)	(-53,0)	(-52,0)	(-42,0)	(-41,0)	(-40,0)	(1,5)	(1,0)	(1,0)	(1,0)	
L1D -238>	(0,8)	(2,1)	(-59,1)	(-57,1)	(-55,1)	(227,101)	(-52,1)	(-46,1)	(238,34)	(-50,1)	(-44,0)	(-39,0)	(1,3)	(1,0)	(1,0)	(1,0)	
L1D -237>	(-53,1)	(0,6)	(-45,1)	(237,22)	(-55,0)	(-51,1)	(-46,0)	(226,78)	(-43,0)	(1,3)	(1,0)	(1,0)	(1,0)	(1,0)	(1,0)	(1,0)	
L1D -236>	(0,6)	(-54,1)	(-53,1)	(225,74)	(-50,1)	(-45,1)	(236,12)	(-67,0)	(-65,0)	(-64,0)	(-61,0)	(-56,0)	(1,0)	(1,0)	(1,0)	(1,0)	
L1D -235>	(-60,1)	(0,7)	(-57,1)	(-49,1)	(-46,1)	(-71,0)	(-59,0)	(-72,0)	(-58,0)	(-55,0)	(-61,0)	(-50,0)	(-48,0)	(-47,0)	(-44,0)	(224,94)	
L1D -234>	(235,0)	(0,15)	(-51,0)	(223,90)	(-64,0)	(-63,0)	(-62,0)	(-55,0)	(-53,0)	(-52,0)	(-44,0)	(-47,0)	(-40,0)	(-38,0)	(1,0)	(1,0)	
L1D -233>	(234,120)	(0,19)	(223,0)	(-56,0)	(-52,0)	(-45,0)	(-68,0)	(-70,0)	(-64,0)	(-63,0)	(-61,0)	(-54,0)	(1,0)	(1,0)	(1,0)	(1,0)	
L1D -232>	(233,116)	(-72,0)	(0,17)	(-61,0)	(-59,0)	(-51,0)	(-48,0)	(-43,0)	(-66,0)	(-65,0)	(-64,0)	(1,0)	(1,0)	(1,0)	(1,0)	(1,0)	
L1D -231>	(0,13)	(-79,0)	(232,122)	(-75,0)	(-66,0)	(-55,0)	(-68,0)	(-64,0)	(-57,0)	(-56,0)	(-53,0)	(1,0)	(1,0)	(1,0)	(1,0)	(1,0)	
L1D -230>	(0,6)	(-49,0)	(231,66)	(-71,0)	(-60,0)	(-58,0)	(-51,0)	(-50,0)	(-47,0)	(-72,0)	(-69,0)	(-64,0)	(1,0)	(1,0)	(1,0)	(1,0)	
L1D -229>	(-54,0)	(0,19)	(230,127)	(-65,0)	(-67,0)	(-66,0)	(-63,0)	(-58,0)	(-55,0)	(-52,0)	(-47,0)	(-45,0)	(1,0)	(1,0)	(1,0)	(1,0)	
L1D -228>	(0,13)	(-59,0)	(229,100)	(-48,0)	(-49,0)	(-74,0)	(-72,0)	(-71,0)	(-66,0)	(-63,0)	(-60,0)	(1,0)	(1,0)	(1,0)	(1,0)	(1,0)	
L1D -227>	(0,15)	(-75,0)	(228,92)	(-64,0)	(-58,0)	(-52,0)	(-54,0)	(-53,0)	(-51,0)	(-49,0)	(-71,0)	(1,0)	(1,0)	(1,0)	(1,0)	(1,0)	
L1D -226>	(228,0)	(-65,0)	(227,72)	(0,10)	(-58,0)	(-56,0)	(-54,0)	(-45,0)	(-74,0)	(1,0)	(1,0)	(1,0)	(1,0)	(1,0)	(1,0)	(1,0)	
L1D -225>	(0,12)	(227,0)	(226,78)	(-58,0)	(-69,0)	(1,0)	(1,0)	(1,0)	(1,0)	(1,0)	(1,0)	(1,0)	(1,0)	(1,0)	(1,0)	(1,0)	
L1D -224>	(0,5)	(1,0)	(225,73)	(226,0)	(1,0)	(1,0)	(1,0)	(1,0)	(1,0)	(1,0)	(1,0)	(1,0)	(1,0)	(1,0)	(1,0)	(1,0)	
L1D -223>	(223,0)	(1,0)	(0,0)	(224,120)	(225,0)	(1,0)	(1,0)	(1,0)	(1,0)	(1,0)	(1,0)	(1,0)	(1,0)	(1,0)	(1,0)	(1,0)	
L1D -222>	(222,101)	(1,9)	(1,0)	(1,0)	(1,0)	(1,0)	(1,0)	(1,0)	(1,0)	(1,0)	(1,0)	(1,0)	(1,0)	(1,0)	(1,0)	(1,0)	
L1D -221>	(221,101)	(1,11)	(1,0)	(1,0)	(1,0)	(1,0)	(1,0)	(1,0)	(1,0)	(1,0)	(1,0)	(1,0)	(1,0)	(1,0)	(1,0)	(1,0)	
L1D -220>	(220,102)	(1,6)	(1,0)	(1,0)	(1,0)	(1,0)	(1,0)	(1,0)	(1,0)	(1,0)	(1,0)	(1,0)	(1,0)	(1,0)	(1,0)	(1,0)	
L1D -219>	(219,102)	(1,19)	(1,0)	(1,0)	(1,0)	(1,0)	(1,0)	(1,0)	(1,0)	(1,0)	(1,0)	(1,0)	(1,0)	(1,0)	(1,0)	(1,0)	
L1D -218>	(218,99)	(1,9)	(1,0)	(1,0)	(1,0)	(1,0)	(1,0)	(1,0)	(1,0)	(1,0)	(1,0)	(1,0)	(1,0)	(1,0)	(1,0)	(1,0)	
L1D -217>	(217,101)	(1,8)	(216,1)	(1,0)	(1,0)	(1,0)	(1,0)	(1,0)	(1,0)	(1,0)	(1,0)	(1,0)	(1,0)	(1,0)	(1,0)	(1,0)	
L1D -216>	(216,105)	(1,7)	(217,2)	(215,1)	(1,0)	(1,0)	(1,0)	(1,0)	(1,0)	(1,0)	(1,0)	(1,0)	(1,0)	(1,0)	(1,0)	(1,0)	
L1D -215>	(215,102)	(1,6)	(216,2)	(217,1)	(0,2)	(1,0)	(1,0)	(1,0)	(1,0)	(1,0)	(1,0)	(1,0)	(1,0)	(1,0)	(1,0)	(1,0)	
L1D -214>	(214,102)	(1,6)	(1,0)	(1,0)	(1,0)	(1,0)	(1,0)	(1,0)	(1,0)	(1,0)	(1,0)	(1,0)	(1,0)	(1,0)	(1,0)	(1,0)	
L1D -213>	(213,102)	(1,6)	(1,0)	(1,0)	(1,0)	(1,0)	(1,0)	(1,0)	(1,0)	(1,0)	(1,0)	(1,0)	(1,0)	(1,0)	(1,0)	(1,0)	
L1D -212>	(212,104)	(1,4)	(0,1)	(1,0)	(1,0)	(1,0)	(1,0)	(1,0)	(1,0)	(1,0)	(1,0)	(1,0)	(1,0)	(1,0)	(1,0)	(1,0)	
L1D -211>	(211,102)	(1,7)	(1,0)	(1,0)	(1,0)	(1,0)	(1,0)	(1,0)	(1,0)	(1,0)	(1,0)	(1,0)	(1,0)	(1,0)	(1,0)	(1,0)	
L1D -210>	(210,101)	(1,9)	(1,0)	(1,0)	(1,0)	(1,0)	(1,0)	(1,0)	(1,0)	(1,0)	(1,0)	(1,0)	(1,0)	(1,0)	(1,0)	(1,0)	
L1D -209>	(209,102)	(1,6)	(1,0)	(1,0)	(1,0)	(1,0)	(1,0)	(1,0)	(1,0)	(1,0)	(1,0)	(1,0)	(1,0)	(1,0)	(1,0)	(1,0)	
L1D -208>	(208,101)	(1,5)	(0,1)	(1,0)	(1,0)	(1,0)	(1,0)	(1,0)	(1,0)	(1,0)	(1,0)	(1,0)	(1,0)	(1,0)	(1,0)	(1,0)	
L1D -207>	(207,101)	(1,7)	(2,1)	(1,0)	(1,0)	(1,0)	(1,0)	(1,0)	(1,0)	(1,0)	(1,0)	(1,0)	(1,0)	(1,0)	(1,0)	(1,0)	
L1D -206>	(206,102)	(1,6)	(1,0)	(1,0)	(1,0)	(1,0)	(1,0)	(1,0)	(1,0)	(1,0)	(1,0)	(1,0)	(1,0)	(1,0)	(1,0)	(1,0)	
L1D -205>	(205,102)	(1,6)	(1,0)	(1,0)	(1,0)	(1,0)	(1,0)	(1,0)	(1,0)	(1,0)	(1,0)	(1,0)	(1,0)	(1,0)	(1,0)	(1,0)	
L1D -204>	(204,102)	(1,7)	(1,0)	(1,0)	(1,0)	(1,0)	(1,0)	(1,0)	(1,0)	(1,0)	(1,0)	(1,0)	(1,0)	(1,0)	(1,0)	(1,0)	
L1D -203>	(203,102)	(1,6)	(1,0)	(1,0)	(1,0)	(1,0)	(1,0)	(1,0)	(1,0)	(1,0)	(1,0)	(1,0)	(1,0)	(1,0)	(1,0)	(1,0)	
L1D -202>	(202,102)	(1,6)	(0,1)	(1,0)	(1,0)	(1,0)	(1,0)	(1,0)	(1,0)	(1,0)	(1,0)	(1,0)	(1,0)	(1,0)	(1,0)	(1,0)	
L1D -201>	(201,105)	(1,3)	(1,0)	(1,0)	(1,0)	(1,0)	(1,0)	(1,0)	(1,0)	(1,0)	(1,0)	(1,0)	(1,0)	(1,0)	(1,0)	(1,0)	
L1D -200>	(200,103)	(1,5)	(1,0)	(1,0)	(1,0)	(1,0)	(1,0)	(1,0)	(1,0)	(1,0)	(1,0)	(1,0)	(1,0)	(1,0)	(1,0)	(1,0)	
L1D -199>	(199,102)	(1,6)	(1,0)	(1,0)	(1,0)	(1,0)	(1,0)	(1,0)	(1,0)	(1,0)	(1,0)	(1,0)	(1,0)	(1,0)	(1,0)	(1,0)	
L1D -198>	(198,101)	(1,7)	(1,0)	(1,0)	(1,0)	(1,0)	(1,0)	(1,0)	(1,0)	(1,0)	(1,0)	(1,0)	(1,0)	(1,0)	(1,0)	(1,0)	
L1D -197>	(197,103)	(1,6)	(1,0)	(1,0)	(1,0)	(1,0)	(1,0)	(1,0)	(1,0)	(1,0)	(1,0)	(1,0)	(1,0)	(1,0)	(1,0)	(1,0)	
L1D -196>	(196,100)	(1,10)	(1,0)	(1,0)	(1,0)	(1,0)	(1,0)	(1,0)	(1,0)	(1,0)	(1,0)	(1,0)	(1,0)	(1,0)	(1,0)	(1,0)	
L1D -195>	(195,101)	(1,8)	(1,0)	(1,0)	(1,0)	(1,0)	(1,0)	(1,0)	(1,0)	(1,0)	(1,0)	(1,0)	(1,0)	(1,0)	(1,0)	(1,0)	
L1D -194>	(194,101)	(1,7)	(1,0)	(1,0)	(1,0)	(1,0)	(1,0)	(1,0)	(1,0)	(1,0)	(1,0)	(1,0)	(1,0)	(1,0)	(1,0)	(1,0)	
L1D -193>	(193,101)	(1,7)	(1,0)	(1,0)	(1,0)	(1,0)	(1,0)	(1,0)	(1,0)	(1,0)	(1,0)	(1,0)	(1,0)	(1,0)	(1,0)	(1,0)	
L1D -192>	(192,101)	(1,8)	(2,1)	(1,0)	(1,0)	(1,0)	(1,0)	(1,0)	(1,0)	(1,0)	(1,0)	(1,0)	(1,0)	(1,0)	(1,0)	(1,0)	
L1D -191>	(191,102)	(1,7)	(1,0)	(1,0)	(1,0)	(1,0)	(1,0)	(1,0)	(1,0)	(1,0)	(1,0)	(1,0)	(1,0)	(1,0)	(1,0)	(1,0)	
L1D -190>	(190,103)	(1,5)	(1,0)	(1,0)	(1,0)	(1,0)	(1,0)	(1,0)	(1,0)	(1,0)	(1,0)	(1,0)	(1,0)	(1,0)	(1,0)	(1,0)	
L1D -189>	(189,103)	(1,5)	(1,0)	(1,0)	(1,0)	(1,0)	(1,0)	(1,0)	(1,0)	(1,0)	(1,0)	(1,0)	(1,0)	(1,0)	(1,0)	(1,0)	
L1D -188>	(188,102)	(1,6)	(2,1)	(1,0)	(1,0)	(1,0)	(1,0)	(1,0)	(1,0)	(1,0)	(1,0)	(1,0)	(1,0)	(1,0)	(1,0)	(1,0)	
L1D -187>	(187,101)	(1,7)	(1,0)	(1,0)	(1,0)	(1,0)	(1,0)	(1,0)	(1,0)	(1,0)	(1,0)	(1,0)	(1,0)	(1,0)	(1,0)	(1,0)	
L1D -186>	(186,102)	(1,6)	(1,0)	(1,0)	(1,0)	(1,0)	(1,0)	(1,0)	(1,0)	(1,0)	(1,0)	(1,0)	(1,0)	(1,0)	(1,0)	(1,0)	
L1D -185>	(185,100)	(1,8)	(1,0)	(1,0)	(1,0)	(1,0)	(1,0)	(1,0)	(1,0)	(1,0)	(1,0)	(1,0)	(1,0)	(1,0)	(1,0)	(1,0)	
L1D -184>	(184,100)	(1,9)	(1,0)	(1,0)	(1,0)	(1,0)	(1,0)	(1,0)	(1,0)	(1,0)	(1,0)	(1,0)	(1,0)	(1,0)	(1,0)	(1,0)	
L1D -183>	(183,103)	(1,5)	(2,1)	(1,0)	(1,0)	(1,0)	(1,0)	(1,0)	(1,0)	(1,0)	(1,0)	(1,0)	(1,0)	(1,0)	(1,0)	(1,0)	
L1D -182>	(182,102)	(1,7)	(1,0)	(1,0)	(1,0)	(1,0)	(1,0)	(1,0)	(1,0)	(1,0)	(1,0)	(1,0)	(1,0)	(1,0)	(1,0)	(1,0)	
L1D -181>	(181,101)	(1,7)	(1,0)	(1,0)	(1,0)	(1,0)	(1,0)	(1,0)	(1,0)	(1,0)	(1,0)	(1,0)	(1,0)	(1,0)	(1,0)	(1,0)	
L1D -180>	(180,102)	(1,6)	(1,0)	(1,0)	(1,0)	(1,0)	(1,0)	(1,0)	(1,0)	(1,0)	(1,0)	(1,0)	(1,0)	(1,0)	(1,0)	(1,0)	
L1D -179>	(179,104)	(1,4)	(1,0)	(1,0)	(1,0)	(1,0)	(1,0)	(1,0)	(1,0)	(1,0)	(1,0)	(1,0)	(1,0)	(1,0)	(1,0)	(1,0)	
L1D -178>	(178,102)	(1,7)	(2,1)	(1,0)	(1,0)	(1,0)	(1,0)	(1,0)	(1,0)	(1,0)	(1,0)	(1,0)	(1,0)	(1,0)	(1,0)	(1,0)	
L1D -177>	(177,101)	(1,7)	(1,0)	(1,0)	(1,0)	(1,0)	(1,0)	(1,0)	(1,0)	(1,0)	(1,0)	(1,0)	(1,0)	(1,0)	(1,0)	(1,0)	
L1D -176>	(176,102)	(1,6)	(1,0)	(1,0)	(1,0)	(1,0)	(1,0)	(1,0)	(1,0)	(1,0)	(1,0)	(1,0)	(1,0)	(1,0)	(1,0)	(1,0)	
L1D -175>	(175,103)	(1,5)	(1,0)	(1,0)	(1,0)	(1,0)	(1,0)	(1,0)	(1,0)	(1,0)	(1,0)	(1,0)	(1,0)	(1,0)	(1,0)	(1,0)	
L1D -174>	(174,100)	(1,8)	(1,0)	(1,0)	(1,0)	(1,0)	(1,0)	(1,0)	(1,0)	(1,0)	(1,0)	(1,0)	(1,0)	(1,0)	(1,0)	(1,0)	
L1D -173>	(173,101)	(1,8)	(1,0)	(1,0)	(1,0)	(1,0)	(1,0)	(1,0)	(1,0)	(1,0)	(1,0)	(1,0)	(1,0)	(1,0)	(1,0)	(1,0)	
L1D -172>	(172,102)	(1,6)	(1,0)	(1,0)	(1,0)	(1,0)	(1,0)	(1,0)	(1,0)	(1,0)	(1,0)	(1,0)	(1,0)	(1,0)	(1,0)	(1,0)	
L1D -171>	(171,102)	(1,6)	(1,0)	(1,0)	(1,0)	(1,0)	(1,0)	(1,0)	(1,0)	(1,0)	(1,0)	(1,0)	(1,0)	(1,0)	(1,0)	(1,0)	
L1D -170>	(170,102)	(1,6)	(1,0)	(1,0)	(1,0)	(1,0)	(1,0)	(1,0)	(1,0)	(1,0)	(1,0)	(1,0)	(1,0)	(1,0)	(1,0)	(1,0)	
L1D -169>	(169,102)	(1,6)	(1,0)	(1,0)	(1,0)	(1,0)	(1,0)	(1,0)	(1,0)	(1,0)	(1,0)	(1,0)	(1,0)	(1,0)	(1,0)	(1,0)	
L1D -168>	(168,103)	(1,6)	(1,0)	(1,0)	(1,0)	(1,0)	(1,0)	(1,0)	(1,0)	(1,0)	(1,0)	(1,0)	(1,0)	(1,0)	(1,0)	(1,0)	
L1D -167>	(167,102)	(1,8)	(1,0)	(1,0)	(1,0)	(1,0)	(1,0)	(1,0)	(1,0)	(1,0)	(1,0)	(1,0)	(1,0)	(1,0)	(1,0)	(1,0)	
L1D -166>	(166,101)	(1,7)	(1,0)	(1,0)	(1,0)	(1,0)	(1,0)	(1,0)	(1,0)	(1,0)	(1,0)	(1,0)	(1,0)	(1,0)	(1,0)	(1,0)	
L1D -165>	(165,102)	(1,8)	(419,1)	(1,0)	(1,0)	(1,0)	(1,0)	(1,0)	(1,0)	(1,0)	(1,0)	(1,0)	(1,0)	(1,0)	(1,0)	(1,0)	
L1D -164>	(164,103)	(1,6)	(1,0)	(1,0)	(1,0)	(1,0)	(1,0)	(1,0)	(1,0)	(1,0)	(1,0)	(1,0)	(1,0)	(1,0)	(1,0)	(1,0)	
L1D -163>	(163,100)	(1,9)	(0,1)	(1,0)	(1,0)	(1,0)	(1,0)	(1,0)	(1,0)	(1,0)	(1,0)	(1,0)	(1,0)	(1,0)	(1,0)	(1,0)	
L1D -162>	(162,102)	(1,7)	(1,0)	(1,0)	(1,0)	(1,0)	(1,0)	(1,0)	(1,0)	(1,0)	(1,0)	(1,0)	(1,0)	(1,0)	(1,0)	(1,0)	
L1D -161>	(161,100)	(1,6)	(0,1)	(1,0)	(1,0)	(1,0)	(1,0)	(1,0)	(1,0)	(1,0)	(1,0)	(1,0)	(1,0)	(1,0)	(1,0)	(1,0)	
L1D -160>	(160,101)	(1,7)	(1,0)	(1,0)	(1,0)	(1,0)	(1,0)	(1,0)	(1,0)	(1,0)	(1,0)	(1,0)	(1,0)	(1,0)	(1,0)	(1,0)	
L1D -159>	(159,102)	(1,7)	(1,0)	(1,0)	(1,0)	(1,0)	(1,0)	(1,0)	(1,0)	(1,0)	(1,0)	(1,0)	(1,0)	(1,0)	(1,0)	(1,0)	
L1D -158>	(158,101)	(1,10)	(1,0)	(1,0)	(1,0)	(1,0)	(1,0)	(1,0)	(1,0)	(1,0)	(1,0)	(1,0)	(1,0)	(1,0)	(1,0)	(1,0)	
L1D -157>	(157,104)	(1,4)	(1,0)	(1,0)	(1,0)	(1,0)	(1,0)	(1,0)	(1,0)	(1,0)	(1,0)	(1,0)	(1,0)	(1,0)	(1,0)	(1,0)	
L1D -156>	(156,102)	(1,7)	(1,0)	(1,0)	(1,0)	(1,0)	(1,0)	(1,0)	(1,0)	(1,0)	(1,0)	(1,0)	(1,0)	(1,0)	(1,0)	(1,0)	
L1D -155>	(155,101)	(1,7)	(1,0)	(1,0)	(1,0)	(1,0)	(1,0)	(1,0)	(1,0)	(1,0)	(1,0)	(1,0)	(1,0)	(1,0)	(1,0)	(1,0)	
L1D -154>	(154,104)	(1,7)	(155,5)	(1,0)	(1,0)	(1,0)	(1,0)	(1,0)	(1,0)	(1,0)	(1,0)	(1,0)	(1,0)	(1,0)	(1,0)	(1,0)	
L1D -153>	(153,104)	(1,6)	(154,2)	(-265,2)	(-266,4)	(1,0)	(1,0)	(1,0)	(1,0)	(1,0)	(1,0)	(1,0)	(1,0)	(1,0)	(1,0)	(1,0)	
L1D -152>	(152,100)	(1,8)	(-266,1)	(1,0)	(1,0)	(1,0)	(1,0)	(1,0)	(1,0)	(1,0)	(1,0)	(1,0)	(1,0)	(1,0)	(1,0)	(1,0)	
L1D -151>	(151,101)	(1,8)	(1,0)	(1,0)	(1,0)	(1,0)	(1,0)	(1,0)	(1,0)	(1,0)	(1,0)	(1,0)	(1,0)	(1,0)	(1,0)	(1,0)	
L1D -150>	(150,102)	(1,6)	(1,0)	(1,0)	(1,0)	(1,0)	(1,0)	(1,0)	(1,0)	(1,0)	(1,0)	(1,0)	(1,0)	(1,0)	(1,0)	(1,0)	
L1D -149>	(149,102)	(1,6)	(1,0)	(1,0)	(1,0)	(1,0)	(1,0)	(1,0)	(1,0)	(1,0)	(1,0)	(1,0)	(1,0)	(1,0)	(1,0)	(1,0)	
L1D -148>	(148,101)	(1,8)	(1,0)	(1,0)	(1,0)	(1,0)	(1,0)	(1,0)	(1,0)	(1,0)	(1,0)	(1,0)	(1,0)	(1,0)	(1,0)	(1,0)	
L1D -147>	(147,102)	(1,6)	(1,0)	(1,0)	(1,0)	(1,0)	(1,0)	(1,0)	(1,0)	(1,0)	(1,0)	(1,0)	(1,0)	(1,0)	(1,0)	(1,0)	
L1D -146>	(146,111)	(1,5)	(147,4)	(1,0)	(1,0)	(1,0)	(1,0)	(1,0)	(1,0)	(1,0)	(1,0)	(1,0)	(1,0)	(1,0)	(1,0)	(1,0)	
L1D -145>	(145,103)	(1,5)	(146,1)	(1,0)	(1,0)	(1,0)	(1,0)	(1,0)	(1,0)	(1,0)	(1,0)	(1,0)	(1,0)	(1,0)	(1,0)	(1,0)	
L1D -144>	(144,101)	(1,9)	(1,0)	(1,0)	(1,0)	(1,0)	(1,0)	(1,0)	(1,0)	(1,0)	(1,0)	(1,0)	(1,0)	(1,0)	(1,0)	(1,0)	
L1D -143>	(143,103)	(1,5)	(0,1)	(1,0)	(1,0)	(1,0)	(1,0)	(1,0)	(1,0)	(1,0)	(1,0)	(1,0)	(1,0)	(1,0)	(1,0)	(1,0)	
L1D -142>	(142,100)	(1,6)	(0,1)	(1,0)	(1,0)	(1,0)	(1,0)	(1,0)	(1,0)	(1,0)	(1,0)	(1,0)	(1,0)	(1,0)	(1,0)	(1,0)	
L1D -141>	(141,100)	(1,8)	(1,0)	(1,0)	(1,0)	(1,0)	(1,0)	(1,0)	(1,0)	(1,0)	(1,0)	(1,0)	(1,0)	(1,0)	(1,0)	(1,0)	
L1D -140>	(140,101)	(1,7)	(1,0)	(1,0)	(1,0)	(1,0)	(1,0)	(1,0)	(1,0)	(1,0)	(1,0)	(1,0)	(1,0)	(1,0)	(1,0)	(1,0)	
L1D -139>	(139,103)	(1,5)	(1,0)	(1,0)	(1,0)	(1,0)	(1,0)	(1,0)	(1,0)	(1,0)	(1,0)	(1,0)	(1,0)	(1,0)	(1,0)	(1,0)	
L1D -138>	(138,101)	(1,7)	(1,0)	(1,0)	(1,0)	(1,0)	(1,0)	(1,0)	(1,0)	(1,0)	(1,0)	(1,0)	(1,0)	(1,0)	(1,0)	(1,0)	
L1D -137>	(137,102)	(1,6)	(1,0)	(1,0)	(1,0)	(1,0)	(1,0)	(1,0)	(1,0)	(1,0)	(1,0)	(1,0)	(1,0)	(1,0)	(1,0)	(1,0)	
L1D -136>	(136,103)	(1,5)	(1,0)	(1,0)	(1,0)	(1,0)	(1,0)	(1,0)	(1,0)	(1,0)	(1,0)	(1,0)	(1,0)	(1,0)	(1,0)	(1,0)	
L1D -135>	(135,104)	(1,5)	(1,0)	(1,0)	(1,0)	(1,0)	(1,0)	(1,0)	(1,0)	(1,0)	(1,0)	(1,0)	(1,0)	(1,0)	(1,0)	(1,0)	
L1D -134>	(134,102)	(1,6)	(1,0)	(1,0)	(1,0)	(1,0)	(1,0)	(1,0)	(1,0)	(1,0)	(1,0)	(1,0)	(1,0)	(1,0)	(1,0)	(1,0)	
L1D -133>	(133,101)	(1,8)	(1,0)	(1,0)	(1,0)	(1,0)	(1,0)	(1,0)	(1,0)	(1,0)	(1,0)	(1,0)	(1,0)	(1,0)	(1,0)	(1,0)	
L1D -132>	(132,102)	(1,7)	(1,0)	(1,0)	(1,0)	(1,0)	(1,0)	(1,0)	(1,0)	(1,0)	(1,0)	(1,0)	(1,0)	(1,0)	(1,0)	(1,0)	
L1D -131>	(131,102)	(1,7)	(1,0)	(1,0)	(1,0)	(1,0)	(1,0)	(1,0)	(1,0)	(1,0)	(1,0)	(1,0)	(1,0)	(1,0)	(1,0)	(1,0)	
L1D -130>	(130,101)	(1,9)	(131,7)	(1,0)	(1,0)	(1,0)	(1,0)	(1,0)	(1,0)	(1,0)	(1,0)	(1,0)	(1,0)	(1,0)	(1,0)	(1,0)	
L1D -129>	(129,101)	(1,8)	(131,2)	(130,1)	(1,0)	(1,0)	(1,0)	(1,0)	(1,0)	(1,0)	(1,0)	(1,0)	(1,0)	(1,0)	(1,0)	(1,0)	
L1D -128>	(128,101)	(1,7)	(1,0)	(1,0)	(1,0)	(1,0)	(1,0)	(1,0)	(1,0)	(1,0)	(1,0)	(1,0)	(1,0)	(1,0)	(1,0)	(1,0)	
L1D -127>	(127,102)	(1,7)	(1,0)	(1,0)	(1,0)	(1,0)	(1,0)	(1,0)	(1,0)	(1,0)	(1,0)	(1,0)	(1,0)	(1,0)	(1,0)	(1,0)	
L1D -126>	(126,102)	(1,6)	(1,0)	(1,0)	(1,0)	(1,0)	(1,0)	(1,0)	(1,0)	(1,0)	(1,0)	(1,0)	(1,0)	(1,0)	(1,0)	(1,0)	
L1D -125>	(125,102)	(1,6)	(1,0)	(1,0)	(1,0)	(1,0)	(1,0)	(1,0)	(1,0)	(1,0)	(1,0)	(1,0)	(1,0)	(1,0)	(1,0)	(1,0)	
L1D -124>	(124,104)	(1,4)	(2,1)	(1,0)	(1,0)	(1,0)	(1,0)	(1,0)	(1,0)	(1,0)	(1,0)	(1,0)	(1,0)	(1,0)	(1,0)	(1,0)	
L1D -123>	(123,102)	(1,6)	(1,0)	(1,0)	(1,0)	(1,0)	(1,0)	(1,0)	(1,0)	(1,0)	(1,0)	(1,0)	(1,0)	(1,0)	(1,0)	(1,0)	
L1D -122>	(122,101)	(1,7)	(1,0)	(1,0)	(1,0)	(1,0)	(1,0)	(1,0)	(1,0)	(1,0)	(1,0)	(1,0)	(1,0)	(1,0)	(1,0)	(1,0)	
L1D -121>	(121,102)	(1,6)	(1,0)	(1,0)	(1,0)	(1,0)	(1,0)	(1,0)	(1,0)	(1,0)	(1,0)	(1,0)	(1,0)	(1,0)	(1,0)	(1,0)	
L1D -120>	(120,102)	(1,6)	(1,0)	(1,0)	(1,0)	(1,0)	(1,0)	(1,0)	(1,0)	(1,0)	(1,0)	(1,0)	(1,0)	(1,0)	(1,0)	(1,0)	
L1D -119>	(119,100)	(1,8)	(1,0)	(1,0)	(1,0)	(1,0)	(1,0)	(1,0)	(1,0)	(1,0)	(1,0)	(1,0)	(1,0)	(1,0)	(1,0)	(1,0)	
L1D -118>	(118,103)	(1,8)	(256,1)	(1,0)	(1,0)	(1,0)	(1,0)	(1,0)	(1,0)	(1,0)	(1,0)	(1,0)	(1,0)	(1,0)	(1,0)	(1,0)	
L1D -117>	(117,104)	(1,8)	(118,15)	(-11,1)	(1,0)	(1,0)	(1,0)	(1,0)	(1,0)	(1,0)	(1,0)	(1,0)	(1,0)	(1,0)	(1,0)	(1,0)	
L1D -116>	(116,102)	(1,6)	(1,0)	(1,0)	(1,0)	(1,0)	(1,0)	(1,0)	(1,0)	(1,0)	(1,0)	(1,0)	(1,0)	(1,0)	(1,0)	(1,0)	
L1D -115>	(115,102)	(1,10)	(1,0)	(1,0)	(1,0)	(1,0)	(1,0)	(1,0)	(1,0)	(1,0)	(1,0)	(1,0)	(1,0)	(1,0)	(1,0)	(1,0)	
L1D -114>	(114,102)	(1,7)	(1,0)	(1,0)	(1,0)	(1,0)	(1,0)	(1,0)	(1,0)	(1,0)	(1,0)	(1,0)	(1,0)	(1,0)	(1,0)	(1,0)	
L1D -113>	(113,105)	(1,3)	(1,0)	(1,0)	(1,0)	(1,0)	(1,0)	(1,0)	(1,0)	(1,0)	(1,0)	(1,0)	(1,0)	(1,0)	(1,0)	(1,0)	
L1D -112>	(112,103)	(1,5)	(1,0)	(1,0)	(1,0)	(1,0)	(1,0)	(1,0)	(1,0)	(1,0)	(1,0)	(1,0)	(1,0)	(1,0)	(1,0)	(1,0)	
L1D -111>	(111,102)	(1,7)	(1,0)	(1,0)	(1,0)	(1,0)	(1,0)	(1,0)	(1,0)	(1,0)	(1,0)	(1,0)	(1,0)	(1,0)	(1,0)	(1,0)	
L1D -110>	(110,101)	(1,7)	(1,0)	(1,0)	(1,0)	(1,0)	(1,0)	(1,0)	(1,0)	(1,0)	(1,0)	(1,0)	(1,0)	(1,0)	(1,0)	(1,0)	
L1D -109>	(109,106)	(1,6)	(110,4)	(108,3)	(1,0)	(1,0)	(1,0)	(1,0)	(1,0)	(1,0)	(1,0)	(1,0)	(1,0)	(1,0)	(1,0)	(1,0)	
L1D -108>	(108,100)	(1,8)	(109,1)	(110,1)	(1,0)	(1,0)	(1,0)	(1,0)	(1,0)	(1,0)	(1,0)	(1,0)	(1,0)	(1,0)	(1,0)	(1,0)	
L1D -107>	(107,101)	(1,7)	(1,0)	(1,0)	(1,0)	(1,0)	(1,0)	(1,0)	(1,0)	(1,0)	(1,0)	(1,0)	(1,0)	(1,0)	(1,0)	(1,0)	
L1D -106>	(106,102)	(1,6)	(1,0)	(1,0)	(1,0)	(1,0)	(1,0)	(1,0)	(1,0)	(1,0)	(1,0)	(1,0)	(1,0)	(1,0)	(1,0)	(1,0)	
L1D -105>	(105,101)	(1,7)	(1,0)	(1,0)	(1,0)	(1,0)	(1,0)	(1,0)	(1,0)	(1,0)	(1,0)	(1,0)	(1,0)	(1,0)	(1,0)	(1,0)	
L1D -104>	(104,100)	(1,8)	(1,0)	(1,0)	(1,0)	(1,0)	(1,0)	(1,0)	(1,0)	(1,0)	(1,0)	(1,0)	(1,0)	(1,0)	(1,0)	(1,0)	
L1D -103>	(103,101)	(1,7)	(1,0)	(1,0)	(1,0)	(1,0)	(1,0)	(1,0)	(1,0)	(1,0)	(1,0)	(1,0)	(1,0)	(1,0)	(1,0)	(1,0)	
L1D -102>	(102,105)	(1,5)	(1,0)	(1,0)	(1,0)	(1,0)	(1,0)	(1,0)	(1,0)	(1,0)	(1,0)	(1,0)	(1,0)	(1,0)	(1,0)	(1,0)	
L1D -101>	(101,104)	(1,5)	(102,9)	(1,0)	(1,0)	(1,0)	(1,0)	(1,0)	(1,0)	(1,0)	(1,0)	(1,0)	(1,0)	(1,0)	(1,0)	(1,0)	
L1D -100>	(100,102)	(1,6)	(1,0)	(1,0)	(1,0)	(1,0)	(1,0)	(1,0)	(1,0)	(1,0)	(1,0)	(1,0)	(1,0)	(1,0)	(1,0)	(1,0)	
L1D -99>	(99,101)	(1,7)	(1,0)	(1,0)	(1,0)	(1,0)	(1,0)	(1,0)	(1,0)	(1,0)	(1,0)	(1,0)	(1,0)	(1,0)	(1,0)	(1,0)	
L1D -98>	(98,102)	(1,6)	(1,0)	(1,0)	(1,0)	(1,0)	(1,0)	(1,0)	(1,0)	(1,0)	(1,0)	(1,0)	(1,0)	(1,0)	(1,0)	(1,0)	
L1D -97>	(97,100)	(1,9)	(0,1)	(98,3)	(-263,2)	(-264,2)	(1,0)	(1,0)	(1,0)	(1,0)	(1,0)	(1,0)	(1,0)	(1,0)	(1,0)	(1,0)	
L1D -96>	(96,100)	(1,8)	(1,0)	(1,0)	(1,0)	(1,0)	(1,0)	(1,0)	(1,0)	(1,0)	(1,0)	(1,0)	(1,0)	(1,0)	(1,0)	(1,0)	
L1D -95>	(95,103)	(1,5)	(1,0)	(1,0)	(1,0)	(1,0)	(1,0)	(1,0)	(1,0)	(1,0)	(1,0)	(1,0)	(1,0)	(1,0)	(1,0)	(1,0)	
L1D -94>	(94,104)	(1,7)	(95,3)	(350,1)	(320,1)	(326,1)	(1,0)	(1,0)	(1,0)	(1,0)	(1,0)	(1,0)	(1,0)	(1,0)	(1,0)	(1,0)	
L1D -93>	(93,107)	(1,7)	(320,1)	(324,2)	(327,1)	(323,1)	(325,1)	(1,0)	(1,0)	(1,0)	(1,0)	(1,0)	(1,0)	(1,0)	(1,0)	(1,0)	
L1D -92>	(92,110)	(1,8)	(320,2)	(323,1)	(327,1)	(1,0)	(1,0)	(1,0)	(1,0)	(1,0)	(1,0)	(1,0)	(1,0)	(1,0)	(1,0)	(1,0)	
L1D -91>	(91,112)	(1,4)	(320,1)	(323,1)	(324,1)	(325,1)	(0,1)	(321,1)	(326,1)	(322,1)	(1,0)	(1,0)	(1,0)	(1,0)	(1,0)	(1,0)	
L1D -90>	(90,117)	(1,5)	(320,2)	(327,1)	(328,1)	(318,1)	(321,1)	(316,1)	(325,1)	(1,0)	(1,0)	(1,0)	(1,0)	(1,0)	(1,0)	(1,0)	
L1D -89>	(89,118)	(1,8)	(320,1)	(324,1)	(318,2)	(319,1)	(325,2)	(326,1)	(315,1)	(322,1)	(1,0)	(1,0)	(1,0)	(1,0)	(1,0)	(1,0)	
L1D -88>	(88,121)	(1,6)	(320,1)	(318,1)	(321,1)	(322,1)	(325,1)	(316,2)	(315,1)	(317,1)	(323,1)	(1,0)	(1,0)	(1,0)	(1,0)	(1,0)	
L1D -87>	(87,121)	(1,5)	(320,2)	(322,2)	(323,2)	(324,1)	(325,1)	(319,3)	(328,1)	(318,1)	(315,1)	(314,1)	(313,1)	(321,1)	(1,0)	(1,0)	
L1D -86>	(86,123)	(324,1)	(1,8)	(319,2)	(320,2)	(321,1)	(318,1)	(325,1)	(326,1)	(327,1)	(316,2)	(317,2)	(313,2)	(311,1)	(1,0)	(1,0)	
L1D -85>	(85,64)	(312,0)	(1,5)	(86,3)	(-11,0)	(325,0)	(316,1)	(322,0)	(323,1)	(324,0)	(0,0)	(317,1)	(320,0)	(313,0)	(314,0)	(311,0)	
L1D -84>	(84,67)	(318,1)	(319,1)	(320,1)	(1,3)	(85,0)	(322,1)	(325,0)	(326,0)	(0,0)	(321,1)	(317,0)	(311,0)	(314,0)	(312,0)	(1,0)	
L1D -83>	(83,125)	(0,1)	(326,1)	(1,8)	(84,2)	(316,1)	(322,2)	(323,1)	(318,4)	(317,2)	(310,1)	(312,1)	(321,1)	(311,2)	(315,1)	(1,0)	
L1D -82>	(82,125)	(0,2)	(323,1)	(1,7)	(319,1)	(314,2)	(315,4)	(322,1)	(316,2)	(308,1)	(309,1)	(312,1)	(317,1)	(1,0)	(1,0)	(1,0)	
L1D -81>	(81,124)	(320,1)	(1,6)	(0,1)	(315,1)	(316,2)	(317,1)	(321,1)	(311,1)	(312,2)	(313,1)	(309,1)	(314,1)	(1,0)	(1,0)	(1,0)	
L1D -80>	(80,127)	(314,2)	(317,1)	(1,4)	(312,2)	(315,1)	(320,1)	(311,1)	(310,2)	(319,1)	(309,1)	(313,1)	(306,1)	(1,0)	(1,0)	(1,0)	
L1D -79>	(79,64)	(314,1)	(1,3)	(321,0)	(315,0)	(310,1)	(319,0)	(316,0)	(311,1)	(317,0)	(307,0)	(305,0)	(1,0)	(1,0)	(1,0)	(1,0)	
L1D -78>	(78,64)	(312,1)	(313,1)	(1,4)	(318,0)	(319,0)	(314,1)	(316,1)	(309,1)	(307,1)	(308,0)	(304,0)	(311,0)	(1,0)	(1,0)	(1,0)	
L1D -77>	(77,125)	(319,1)	(1,7)	(310,1)	(315,1)	(316,1)	(313,1)	(307,1)	(312,3)	(314,1)	(305,1)	(311,1)	(304,1)	(308,1)	(1,0)	(1,0)	
L1D -76>	(76,125)	(316,1)	(1,6)	(309,1)	(312,2)	(313,1)	(314,1)	(308,2)	(317,1)	(307,1)	(310,2)	(315,1)	(311,1)	(303,1)	(302,1)	(305,1)	
L1D -75>	(75,126)	(313,1)	(1,8)	(308,2)	(309,2)	(310,1)	(317,1)	(307,2)	(316,1)	(305,3)	(302,2)	(306,1)	(300,1)	(1,0)	(1,0)	(1,0)	
L1D -74>	(74,64)	(310,0)	(1,3)	(307,0)	(311,0)	(306,1)	(309,0)	(312,0)	(303,1)	(305,0)	(302,0)	(300,0)	(301,0)	(1,0)	(1,0)	(1,0)	
L1D -73>	(73,122)	(307,1)	(308,1)	(309,1)	(1,6)	(311,1)	(314,1)	(315,1)	(305,1)	(310,3)	(306,1)	(303,2)	(302,1)	(304,1)	(300,1)	(301,1)	
L1D -72>	(72,125)	(0,1)	(315,1)	(1,11)	(305,2)	(308,2)	(311,2)	(312,1)	(306,2)	(307,3)	(303,1)	(301,1)	(310,1)	(300,2)	(298,1)	(304,1)	
L1D -71>	(71,126)	(0,2)	(312,1)	(1,6)	(307,2)	(308,1)	(309,1)	(311,1)	(303,1)	(300,1)	(304,1)	(298,1)	(299,1)	(1,0)	(1,0)	(1,0)	
L1D -70>	(70,126)	(309,1)	(1,7)	(303,1)	(304,2)	(305,2)	(306,1)	(310,1)	(311,1)	(301,3)	(300,1)	(298,1)	(302,1)	(1,0)	(1,0)	(1,0)	
L1D -69>	(69,64)	(303,1)	(306,0)	(1,2)	(307,0)	(308,1)	(309,0)	(300,0)	(305,1)	(299,1)	(298,0)	(301,0)	(302,0)	(304,0)	(0,0)	(1,0)	
L1D -68>	(68,125)	(303,1)	(1,6)	(301,1)	(305,2)	(308,1)	(309,1)	(310,1)	(304,1)	(0,1)	(302,2)	(298,2)	(306,1)	(296,1)	(299,1)	(294,1)	
L1D -67>	(67,125)	(301,2)	(302,3)	(1,7)	(307,1)	(308,1)	(309,1)	(63,1)	(303,3)	(298,1)	(296,2)	(297,1)	(300,2)	(1,0)	(1,0)	(1,0)	
L1D -66>	(66,123)	(308,1)	(1,7)	(304,1)	(298,1)	(296,1)	(299,1)	(300,2)	(294,1)	(0,1)	(293,1)	(295,1)	(301,1)	(297,1)	(1,0)	(1,0)	
L1D -65>	(65,122)	(305,1)	(1,6)	(298,2)	(300,1)	(301,2)	(302,2)	(303,1)	(297,4)	(306,1)	(296,1)	(304,1)	(294,2)	(293,1)	(292,1)	(291,1)	
L1D -64>	(64,122)	(302,1)	(1,8)	(297,1)	(298,2)	(299,1)	(296,1)	(303,1)	(304,1)	(305,1)	(294,3)	(295,2)	(291,1)	(1,0)	(1,0)	(1,0)	
L1D -63>	(63,126)	(299,1)	(1,7)	(51,1)	(296,1)	(294,2)	(302,1)	(295,2)	(298,1)	(301,1)	(292,2)	(291,1)	(289,1)	(0,1)	(1,0)	(1,0)	
L1D -62>	(62,126)	(296,2)	(297,2)	(298,2)	(1,5)	(303,1)	(304,1)	(294,1)	(295,2)	(301,1)	(293,1)	(-41,2)	(299,1)	(292,1)	(290,1)	(1,0)	
L1D -61>	(61,126)	(293,1)	(304,1)	(1,7)	(294,2)	(300,1)	(302,1)	(292,1)	(298,1)	(295,1)	(-41,2)	(290,1)	(296,2)	(289,1)	(291,1)	(297,1)	
L1D -60>	(60,66)	(294,0)	(301,0)	(1,4)	(297,0)	(298,0)	(299,0)	(295,0)	(292,0)	(296,0)	(293,0)	(287,0)	(288,0)	(290,0)	(1,0)	(1,0)	
L1D -59>	(59,126)	(298,1)	(1,6)	(292,2)	(294,2)	(295,1)	(296,2)	(299,1)	(300,1)	(293,1)	(287,2)	(290,1)	(0,1)	(285,1)	(1,0)	(1,0)	
L1D -58>	(58,65)	(0,1)	(295,0)	(1,1)	(-18,4)	(296,0)	(297,1)	(298,0)	(291,0)	(288,1)	(287,0)	(290,0)	(293,1)	(285,0)	(286,0)	(1,0)	
L1D -57>	(57,64)	(292,1)	(1,3)	(-1,0)	(290,0)	(298,0)	(299,0)	(293,0)	(288,1)	(287,1)	(294,0)	(289,0)	(295,0)	(283,0)	(1,0)	(1,0)	
L1D -56>	(56,64)	(290,1)	(291,1)	(1,4)	(296,0)	(297,0)	(292,1)	(287,1)	(288,0)	(282,0)	(289,0)	(1,0)	(1,0)	(1,0)	(1,0)	(1,0)	
L1D -55>	(55,65)	(297,0)	(1,3)	(293,1)	(287,0)	(285,0)	(288,0)	(289,1)	(292,0)	(290,1)	(282,0)	(286,0)	(1,0)	(1,0)	(1,0)	(1,0)	
L1D -54>	(54,125)	(288,2)	(294,1)	(1,6)	(287,2)	(290,2)	(0,3)	(295,1)	(286,2)	(289,1)	(280,1)	(283,1)	(1,0)	(1,0)	(1,0)	(1,0)	
L1D -53>	(53,125)	(291,1)	(1,10)	(52,3)	(286,2)	(292,1)	(293,1)	(294,1)	(283,3)	(284,1)	(287,2)	(288,1)	(290,1)	(0,1)	(278,1)	(280,1)	
L1D -52>	(52,127)	(288,1)	(1,6)	(53,1)	(285,2)	(289,1)	(290,2)	(291,1)	(283,1)	(284,2)	(280,2)	(281,1)	(279,1)	(282,1)	(1,0)	(1,0)	
L1D -51>	(51,121)	(285,2)	(286,2)	(287,2)	(1,5)	(284,3)	(292,1)	(293,1)	(283,2)	(0,1)	(288,3)	(289,1)	(282,2)	(278,1)	(281,1)	(279,1)	
L1D -50>	(50,122)	(0,1)	(293,1)	(1,13)	(283,2)	(289,2)	(290,1)	(284,3)	(285,3)	(279,1)	(288,1)	(278,2)	(286,1)	(276,1)	(1,0)	(1,0)	
L1D -49>	(49,126)	(283,2)	(279,1)	(1,14)	(50,6)	(-1,1)	(0,4)	(286,1)	(284,1)	(285,2)	(287,1)	(281,1)	(278,2)	(282,2)	(276,1)	(277,1)	
L1D -48>	(48,123)	(287,1)	(1,7)	(282,1)	(283,2)	(284,1)	(288,1)	(289,1)	(0,1)	(286,1)	(280,2)	(279,2)	(276,2)	(274,1)	(1,0)	(1,0)	
L1D -47>	(47,125)	(281,1)	(284,1)	(1,4)	(282,1)	(287,1)	(278,2)	(280,2)	(277,2)	(283,1)	(286,1)	(276,1)	(1,0)	(1,0)	(1,0)	(1,0)	
L1D -46>	(46,64)	(281,1)	(1,3)	(279,0)	(288,0)	(282,0)	(-41,0)	(67,3)	(277,1)	(276,1)	(283,0)	(284,0)	(272,0)	(275,0)	(1,0)	(1,0)	
L1D -45>	(45,127)	(280,3)	(1,6)	(0,1)	(285,1)	(286,1)	(279,1)	(281,3)	(276,2)	(274,2)	(275,1)	(282,1)	(271,1)	(278,1)	(46,1)	(1,0)	
L1D -44>	(44,109)	(286,1)	(1,5)	(0,2)	(282,1)	(283,1)	(18,9)	(274,1)	(277,1)	(271,1)	(279,1)	(45,1)	(1,0)	(1,0)	(1,0)	(1,0)	
L1D -43>	(43,99)	(283,1)	(1,3)	(276,2)	(279,1)	(280,1)	(281,2)	(275,3)	(284,1)	(274,2)	(272,1)	(278,1)	(44,1)	(1,0)	(1,0)	(1,0)	
L1D -42>	(42,83)	(280,1)	(1,5)	(275,2)	(276,1)	(3,1)	(274,1)	(281,1)	(282,1)	(283,1)	(272,2)	(273,1)	(-12,87)	(43,1)	(1,0)	(1,0)	
L1D -41>	(41,71)	(277,1)	(1,3)	(40,1)	(274,1)	(-41,3)	(25,8)	(3,92)	(18,45)	(278,1)	(272,1)	(273,1)	(279,1)	(42,1)	(34,10)	(1,0)	
L1D -40>	(40,54)	(16,60)	(275,2)	(276,2)	(1,3)	(-41,1)	(281,1)	(282,1)	(272,1)	(277,1)	(273,1)	(41,1)	(-3,111)	(34,1)	(-12,1)	(-2,8)	
L1D -39>	(39,40)	(0,2)	(282,1)	(1,2)	(272,2)	(278,1)	(279,1)	(-2,2)	(40,1)	(17,3)	(-3,1)	(18,1)	(48,1)	(1,0)	(1,0)	(1,0)	
L1D -38>	(-4,0)	(16,0)	(275,0)	(39,0)	(-2,123)	(48,0)	(-3,10)	(17,2)	(1,0)	(1,0)	(1,0)	(1,0)	(1,0)	(1,0)	(1,0)	(1,0)	
L1D -37>	(37,1)	(270,0)	(276,0)	(38,0)	(-3,8)	(8,1)	(21,0)	(-2,74)	(25,45)	(1,0)	(1,0)	(1,0)	(1,0)	(1,0)	(1,0)	(1,0)	
L1D -36>	(-12,3)	(24,80)	(5,1)	(4,2)	(-2,83)	(21,1)	(-3,0)	(1,0)	(1,0)	(1,0)	(1,0)	(1,0)	(1,0)	(1,0)	(1,0)	(1,0)	
L1D -35>	(5,87)	(16,22)	(32,1)	(18,69)	(4,94)	(33,3)	(1,0)	(1,0)	(1,0)	(1,0)	(1,0)	(1,0)	(1,0)	(1,0)	(1,0)	(1,0)	
L1D -34>	(5,124)	(33,1)	(4,2)	(-1,10)	(22,0)	(36,6)	(30,0)	(15,0)	(1,0)	(1,0)	(1,0)	(1,0)	(1,0)	(1,0)	(1,0)	(1,0)	
L1D -33>	(-1,90)	(27,94)	(32,2)	(21,98)	(63,1)	(37,1)	(14,26)	(28,1)	(1,0)	(1,0)	(1,0)	(1,0)	(1,0)	(1,0)	(1,0)	(1,0)	
L1D -32>	(-12,8)	(27,99)	(20,1)	(-1,0)	(21,4)	(9,5)	(-2,0)	(1,0)	(1,0)	(1,0)	(1,0)	(1,0)	(1,0)	(1,0)	(1,0)	(1,0)	
L1D -31>	(27,110)	(21,46)	(25,58)	(-1,1)	(1,0)	(1,0)	(1,0)	(1,0)	(1,0)	(1,0)	(1,0)	(1,0)	(1,0)	(1,0)	(1,0)	(1,0)	
L1D -30>	(28,1)	(31,0)	(27,12)	(-1,88)	(32,54)	(26,31)	(21,0)	(19,0)	(1,0)	(1,0)	(1,0)	(1,0)	(1,0)	(1,0)	(1,0)	(1,0)	
L1D -29>	(27,79)	(21,70)	(9,1)	(-2,2)	(28,10)	(26,2)	(-1,12)	(24,11)	(31,5)	(18,1)	(20,0)	(-5,28)	(-12,3)	(32,2)	(-6,3)	(1,0)	
L1D -28>	(-1,11)	(27,8)	(33,1)	(26,0)	(-3,3)	(21,72)	(31,0)	(-7,1)	(17,0)	(1,0)	(1,0)	(1,0)	(1,0)	(1,0)	(1,0)	(1,0)	
L1D -27>	(-12,127)	(-7,2)	(3,23)	(20,0)	(1,0)	(1,0)	(1,0)	(1,0)	(1,0)	(1,0)	(1,0)	(1,0)	(1,0)	(1,0)	(1,0)	(1,0)	
L1D -26>	(8,0)	(31,0)	(25,36)	(63,30)	(38,80)	(22,0)	(54,5)	(-12,7)	(14,0)	(1,0)	(1,0)	(1,0)	(1,0)	(1,0)	(1,0)	(1,0)	
L1D -25>	(13,1)	(34,7)	(37,14)	(-12,89)	(1,0)	(1,0)	(1,0)	(1,0)	(1,0)	(1,0)	(1,0)	(1,0)	(1,0)	(1,0)	(1,0)	(1,0)	
L1D -24>	(33,9)	(-1,94)	(17,26)	(35,15)	(21,1)	(-16,2)	(1,0)	(1,0)	(1,0)	(1,0)	(1,0)	(1,0)	(1,0)	(1,0)	(1,0)	(1,0)	
L1D -23>	(-9,6)	(-12,69)	(9,31)	(-17,3)	(-16,3)	(-1,16)	(34,0)	(6,0)	(1,0)	(1,0)	(1,0)	(1,0)	(1,0)	(1,0)	(1,0)	(1,0)	
L1D -22>	(33,18)	(9,1)	(-16,58)	(-17,122)	(-18,2)	(31,6)	(-12,6)	(-2,18)	(-1,2)	(-19,0)	(1,0)	(1,0)	(1,0)	(1,0)	(1,0)	(1,0)	
L1D -21>	(-19,1)	(-16,8)	(20,27)	(-17,117)	(18,11)	(53,12)	(15,0)	(30,8)	(-1,0)	(9,0)	(29,1)	(14,1)	(1,0)	(1,0)	(1,0)	(1,0)	
L1D -20>	(-17,90)	(-1,21)	(29,15)	(-9,8)	(19,1)	(-3,0)	(21,0)	(-41,0)	(3,0)	(18,2)	(30,9)	(8,0)	(10,6)	(1,0)	(1,0)	(1,0)	
L1D -19>	(14,4)	(18,2)	(15,4)	(5,49)	(-22,0)	(9,127)	(6,1)	(-1,1)	(16,4)	(19,5)	(10,1)	(-23,2)	(17,26)	(-3,0)	(-15,0)	(1,1)	
L1D -18>	(-1,111)	(3,0)	(-3,1)	(9,10)	(8,29)	(-13,1)	(5,1)	(20,0)	(-9,0)	(6,1)	(35,0)	(12,0)	(-14,0)	(1,0)	(1,0)	(1,0)	
L1D -17>	(-2,102)	(39,0)	(15,0)	(26,0)	(-3,0)	(48,0)	(8,0)	(-1,0)	(1,0)	(1,0)	(1,0)	(1,0)	(1,0)	(1,0)	(1,0)	(1,0)	
L1D -16>	(15,1)	(-2,104)	(8,1)	(14,2)	(-3,59)	(-1,2)	(9,0)	(-12,1)	(1,0)	(1,0)	(1,0)	(1,0)	(1,0)	(1,0)	(1,0)	(1,0)	
L1D -15>	(8,96)	(21,20)	(20,4)	(-1,4)	(-12,45)	(35,0)	(13,0)	(1,0)	(1,0)	(1,0)	(1,0)	(1,0)	(1,0)	(1,0)	(1,0)	(1,0)	
L1D -14>	(17,120)	(-16,0)	(31,0)	(-3,1)	(21,0)	(-1,0)	(18,0)	(-9,0)	(1,0)	(1,0)	(1,0)	(1,0)	(1,0)	(1,0)	(1,0)	(1,0)	
L1D -13>	(-9,58)	(17,102)	(-1,50)	(12,1)	(-2,0)	(30,5)	(-6,16)	(-3,3)	(-7,1)	(39,0)	(19,0)	(-4,0)	(1,0)	(1,0)	(1,0)	(1,0)	
L1D -12>	(11,13)	(-6,114)	(17,30)	(-7,127)	(20,10)	(-16,1)	(21,10)	(-1,79)	(-8,25)	(2,4)	(49,3)	(-13,3)	(15,42)	(38,7)	(52,3)	(53,3)	
L1D -11>	(10,1)	(1,10)	(264,9)	(17,78)	(14,120)	(2,12)	(13,11)	(-11,0)	(18,0)	(266,7)	(-1,9)	(-2,0)	(-7,1)	(1,0)	(1,0)	(1,0)	
L1D -10>	(-11,0)	(-2,0)	(17,83)	(8,0)	(-1,2)	(9,0)	(-4,0)	(-3,0)	(2,0)	(1,0)	(-10,0)	(1,0)	(1,0)	(1,0)	(1,0)	(1,0)	
L1D -9>	(-12,92)	(-1,0)	(-18,2)	(17,4)	(37,0)	(15,0)	(-11,3)	(26,0)	(-21,1)	(14,0)	(5,0)	(1,0)	(1,0)	(1,0)	(1,0)	(1,0)	
L1D -8>	(10,105)	(-12,0)	(4,40)	(7,0)	(17,77)	(9,1)	(12,0)	(11,0)	(1,0)	(1,0)	(1,0)	(1,0)	(1,0)	(1,0)	(1,0)	(1,0)	
L1D -7>	(17,1)	(-26,4)	(-1,1)	(6,14)	(32,1)	(-14,0)	(3,48)	(9,67)	(-7,1)	(11,2)	(12,50)	(10,12)	(-2,9)	(8,25)	(-27,1)	(-13,3)	
L1D -6>	(3,0)	(5,0)	(9,94)	(12,21)	(-26,0)	(-13,1)	(4,0)	(37,1)	(-2,0)	(-31,0)	(28,0)	(-14,0)	(-3,17)	(-4,0)	(-1,2)	(1,0)	
L1D -5>	(-6,114)	(-1,20)	(36,113)	(-7,112)	(12,105)	(-15,97)	(-28,63)	(-12,1)	(3,1)	(39,1)	(17,1)	(31,1)	(1,0)	(1,0)	(1,0)	(1,0)	
L1D -4>	(4,95)	(-12,4)	(0,4)	(2,54)	(6,38)	(-17,0)	(31,0)	(8,0)	(9,0)	(-7,0)	(5,0)	(-28,2)	(-6,2)	(1,0)	(1,0)	(1,0)	
L1D -3>	(-1,3)	(1,8)	(9,1)	(-8,0)	(-21,4)	(8,0)	(15,46)	(-38,8)	(36,8)	(-7,30)	(-10,1)	(11,69)	(6,8)	(-12,3)	(-2,0)	(-15,5)	
L1D -2>	(0,127)	(2,109)	(-5,1)	(14,5)	(-18,17)	(-2,52)	(4,114)	(-3,3)	(-15,3)	(1,17)	(267,14)	(7,6)	(-1,6)	(35,2)	(30,3)	(17,0)	
L1D -1>	(29,1)	(2,25)	(9,28)	(27,1)	(1,83)	(13,2)	(255,2)	(10,2)	(-6,24)	(-1,2)	(19,3)	(-10,16)	(265,7)	(-15,5)	(34,3)	(15,6)	
L1D 0>	(226,1)	(228,1)	(0,125)	(1,31)	(223,1)	(234,0)	(-2,4)	(233,0)	(265,1)	(2,10)	(-1,0)	(227,0)	(254,0)	(-4,1)	(1,0)	(1,0)	
L1D 1>	(-1,6)	(0,20)	(-224,1)	(1,126)	(265,1)	(266,3)	(-10,2)	(264,2)	(-265,1)	(-232,1)	(-234,1)	(363,1)	(2,5)	(263,2)	(-11,1)	(254,1)	
L1D 2>	(-1,28)	(266,0)	(3,0)	(2,40)	(-2,73)	(1,114)	(-4,94)	(-23,0)	(0,40)	(-11,8)	(265,7)	(-13,3)	(264,2)	(-40,1)	(-3,0)	(263,2)	
L1D 3>	(36,0)	(-1,0)	(-4,1)	(-5,0)	(1,0)	(33,2)	(6,81)	(-11,1)	(-14,5)	(-8,0)	(-19,0)	(-12,0)	(3,0)	(2,0)	(-18,0)	(-7,3)	
L1D 4>	(6,7)	(-4,68)	(-2,124)	(-3,0)	(0,4)	(-1,1)	(-14,3)	(-13,0)	(27,0)	(-12,0)	(1,0)	(1,0)	(1,0)	(1,0)	(1,0)	(1,0)	
L1D 5>	(-31,4)	(7,0)	(-6,118)	(27,4)	(19,9)	(-20,0)	(-1,0)	(-33,0)	(3,0)	(-19,4)	(31,2)	(-32,0)	(-18,0)	(28,0)	(26,5)	(-10,1)	
L1D 6>	(-17,0)	(2,4)	(-1,47)	(11,3)	(-11,65)	(3,5)	(1,3)	(-7,0)	(6,66)	(-19,7)	(-18,61)	(4,0)	(-8,21)	(-14,0)	(-12,0)	(-3,4)	
L1D 7>	(10,1)	(-1,42)	(-3,0)	(-39,0)	(-21,10)	(5,3)	(-20,2)	(9,106)	(-6,0)	(-18,0)	(-19,8)	(-12,0)	(3,5)	(1,0)	(1,0)	(1,0)	
L1D 8>	(-19,0)	(4,0)	(9,1)	(-12,4)	(27,7)	(-2,0)	(25,51)	(8,0)	(-11,2)	(-10,79)	(-7,5)	(-3,0)	(-18,0)	(-13,0)	(-1,1)	(-24,0)	
L1D 9>	(9,69)	(-12,85)	(-13,1)	(-11,103)	(-27,1)	(-3,28)	(-24,1)	(8,1)	(-10,0)	(-20,0)	(3,0)	(6,0)	(-1,1)	(-4,2)	(1,0)	(2,0)	
L1D 10>	(-11,70)	(-13,0)	(-36,0)	(-12,46)	(2,0)	(3,8)	(6,3)	(1,0)	(-1,2)	(1,0)	(1,0)	(1,0)	(1,0)	(1,0)	(1,0)	(1,0)	
L1D 11>	(-12,108)	(-18,22)	(-6,0)	(-19,7)	(-13,4)	(-3,0)	(-7,2)	(1,0)	(1,0)	(1,0)	(1,0)	(1,0)	(1,0)	(1,0)	(1,0)	(1,0)	
L1D 12>	(-1,5)	(-7,73)	(-13,0)	(-8,0)	(7,0)	(5,0)	(-27,3)	(3,0)	(-14,41)	(-19,0)	(-16,0)	(1,0)	(1,0)	(1,0)	(1,0)	(1,0)	
L1D 13>	(3,2)	(7,79)	(-3,124)	(-6,125)	(-7,22)	(-1,4)	(14,1)	(-19,0)	(1,0)	(1,0)	(1,0)	(1,0)	(1,0)	(1,0)	(1,0)	(1,0)	
L1D 14>	(-7,97)	(-6,0)	(-36,5)	(8,0)	(-3,0)	(2,8)	(-8,9)	(-4,54)	(3,0)	(7,0)	(-1,0)	(1,0)	(1,0)	(1,0)	(1,0)	(1,0)	
L1D 15>	(-7,73)	(14,0)	(-21,0)	(6,0)	(-8,1)	(-20,3)	(-4,0)	(7,0)	(3,0)	(-37,3)	(-2,0)	(-1,0)	(5,0)	(1,37)	(1,0)	(1,0)	
L1D 16>	(2,25)	(-21,67)	(-38,26)	(-22,25)	(9,14)	(1,14)	(6,1)	(-18,0)	(-2,2)	(-1,0)	(-41,3)	(10,0)	(1,0)	(1,0)	(1,0)	(1,0)	
L1D 17>	(-18,9)	(-19,91)	(-11,1)	(-34,0)	(-12,10)	(9,0)	(-35,0)	(1,0)	(1,0)	(1,0)	(1,0)	(1,0)	(1,0)	(1,0)	(1,0)	(1,0)	
L1D 18>	(34,0)	(-39,0)	(-33,1)	(-1,6)	(30,0)	(-12,73)	(17,17)	(20,0)	(-19,4)	(-20,0)	(35,0)	(-36,0)	(14,0)	(1,0)	(1,0)	(1,0)	
L1D 19>	(-3,123)	(-10,2)	(37,0)	(-2,25)	(-18,0)	(-6,0)	(12,17)	(17,0)	(10,2)	(-26,0)	(1,0)	(1,0)	(1,0)	(1,0)	(1,0)	(1,0)	
L1D 20>	(-1,96)	(-6,1)	(-2,9)	(-23,0)	(-3,5)	(21,1)	(28,0)	(10,0)	(-26,0)	(1,0)	(1,0)	(1,0)	(1,0)	(1,0)	(1,0)	(1,0)	
L1D 21>	(-6,1)	(-25,1)	(37,64)	(-1,88)	(-2,3)	(-4,101)	(32,39)	(12,17)	(28,0)	(5,33)	(-7,34)	(-26,1)	(19,1)	(-3,5)	(27,9)	(-22,10)	
L1D 22>	(11,65)	(-12,0)	(-20,5)	(9,0)	(12,2)	(6,0)	(1,0)	(1,0)	(1,0)	(1,0)	(1,0)	(1,0)	(1,0)	(1,0)	(1,0)	(1,0)	
L1D 23>	(-33,6)	(-6,7)	(6,6)	(1,0)	(1,0)	(1,0)	(1,0)	(1,0)	(1,0)	(1,0)	(1,0)	(1,0)	(1,0)	(1,0)	(1,0)	(1,0)	
L1D 24>	(-3,1)	(-1,3)	(13,0)	(6,0)	(-7,81)	(-26,2)	(29,31)	(-11,1)	(12,2)	(11,0)	(1,0)	(1,0)	(1,0)	(1,0)	(1,0)	(1,0)	
L1D 25>	(-15,0)	(6,3)	(-2,0)	(-1,3)	(-29,22)	(-30,66)	(2,22)	(-34,65)	(-31,2)	(9,1)	(-3,17)	(29,15)	(-6,1)	(-12,0)	(1,0)	(1,0)	
L1D 26>	(-12,9)	(-38,1)	(9,3)	(-28,67)	(-2,1)	(-7,126)	(-11,5)	(1,0)	(1,0)	(1,0)	(1,0)	(1,0)	(1,0)	(1,0)	(1,0)	(1,0)	
L1D 27>	(-28,74)	(-6,79)	(-34,7)	(9,0)	(4,19)	(-29,29)	(-1,31)	(5,0)	(2,0)	(6,0)	(1,0)	(1,0)	(1,0)	(1,0)	(1,0)	(1,0)	
L1D 28>	(-34,73)	(-29,21)	(-1,1)	(3,2)	(-35,38)	(9,64)	(-30,2)	(-2,3)	(2,2)	(-9,1)	(-7,1)	(1,0)	(1,0)	(1,0)	(1,0)	(1,0)	
L1D 29>	(2,21)	(-1,63)	(1,24)	(9,81)	(-11,74)	(3,20)	(6,0)	(-20,3)	(-7,0)	(1,0)	(1,0)	(1,0)	(1,0)	(1,0)	(1,0)	(1,0)	
L1D 30>	(-9,2)	(9,78)	(2,2)	(-6,2)	(-1,12)	(3,0)	(-28,2)	(-12,0)	(-11,106)	(1,0)	(1,0)	(1,0)	(1,0)	(1,0)	(1,0)	(1,0)	
L1D 31>	(-30,27)	(-1,111)	(-6,51)	(-4,13)	(2,7)	(-11,113)	(-3,1)	(-14,9)	(-5,28)	(-9,1)	(-32,80)	(8,19)	(-28,33)	(-33,1)	(-7,1)	(1,0)	
L1D 32>	(-1,80)	(-5,1)	(-46,0)	(-34,0)	(-12,52)	(2,0)	(-28,3)	(1,1)	(-33,3)	(6,0)	(-29,33)	(1,0)	(1,0)	(1,0)	(1,0)	(1,0)	
L1D 33>	(-12,101)	(-28,5)	(-6,0)	(-1,28)	(-34,10)	(-29,6)	(-18,1)	(1,0)	(1,0)	(1,0)	(1,0)	(1,0)	(1,0)	(1,0)	(1,0)	(1,0)	
L1D 34>	(-13,0)	(-12,90)	(-29,1)	(-33,0)	(-36,0)	(-1,0)	(1,0)	(1,0)	(1,0)	(1,0)	(1,0)	(1,0)	(1,0)	(1,0)	(1,0)	(1,0)	
L1D 35>	(-17,1)	(-12,63)	(-18,3)	(-19,5)	(-3,0)	(-36,74)	(-27,2)	(1,0)	(1,0)	(1,0)	(1,0)	(1,0)	(1,0)	(1,0)	(1,0)	(1,0)	
L1D 36>	(-12,80)	(-19,24)	(-6,0)	(-1,4)	(-18,11)	(-5,26)	(-32,7)	(1,0)	(1,0)	(1,0)	(1,0)	(1,0)	(1,0)	(1,0)	(1,0)	(1,0)	
L1D 37>	(-12,113)	(-7,0)	(26,0)	(234,0)	(0,0)	(235,0)	(236,0)	(237,0)	(238,0)	(239,0)	(240,0)	(241,0)	(242,0)	(243,0)	(232,0)	(-1,1)	
L1D 38>	(-12,70)	(25,8)	(-20,7)	(10,3)	(-17,1)	(-14,0)	(0,0)	(237,0)	(238,0)	(239,0)	(240,0)	(241,0)	(242,0)	(-1,75)	(232,0)	(-7,33)	
L1D 39>	(-12,111)	(-39,24)	(-21,120)	(-22,25)	(234,2)	(9,4)	(236,3)	(237,3)	(238,2)	(239,2)	(240,2)	(241,2)	(230,2)	(231,3)	(232,2)	(0,1)	
L1D 40>	(-40,14)	(233,1)	(234,1)	(235,1)	(236,1)	(0,1)	(237,1)	(238,1)	(239,1)	(240,1)	(241,0)	(-20,0)	(243,0)	(232,1)	(-6,123)	(231,1)	
L1D 41>	(-41,75)	(233,7)	(234,6)	(235,7)	(236,7)	(237,6)	(238,7)	(0,6)	(239,7)	(240,6)	(241,5)	(228,2)	(229,3)	(232,7)	(231,6)	(230,5)	
L1D 42>	(-42,87)	(233,8)	(0,5)	(234,8)	(235,8)	(236,9)	(237,9)	(238,9)	(239,6)	(240,5)	(227,2)	(242,3)	(229,5)	(232,9)	(231,7)	(230,5)	
L1D 43>	(-43,100)	(233,9)	(234,11)	(235,9)	(0,6)	(236,9)	(237,10)	(238,8)	(239,7)	(240,5)	(241,4)	(226,2)	(230,7)	(232,10)	(231,8)	(229,5)	
L1D 44>	(-44,110)	(233,9)	(230,9)	(234,13)	(235,11)	(236,14)	(237,8)	(238,7)	(239,7)	(240,6)	(225,2)	(242,3)	(229,6)	(232,12)	(231,12)	(-23,86)	
L1D 45>	(-45,65)	(233,6)	(234,6)	(235,6)	(0,4)	(236,5)	(237,5)	(238,4)	(239,4)	(240,2)	(224,2)	(242,2)	(230,5)	(232,7)	(231,5)	(229,4)	
L1D 46>	(-46,64)	(233,6)	(234,6)	(235,6)	(236,5)	(237,5)	(0,4)	(238,4)	(239,3)	(240,3)	(224,2)	(228,4)	(229,4)	(232,7)	(231,5)	(230,4)	
L1D 47>	(-47,64)	(233,6)	(234,6)	(235,6)	(236,5)	(237,5)	(238,4)	(239,3)	(0,4)	(-46,1)	(241,2)	(242,2)	(230,5)	(232,5)	(231,5)	(224,2)	
L1D 48>	(-48,24)	(233,2)	(229,3)	(227,1)	(231,2)	(236,2)	(-1,0)	(225,1)	(224,1)	(226,1)	(3,1)	(230,1)	(234,2)	(232,2)	(-28,65)	(-11,18)	
L1D 49>	(-49,74)	(235,7)	(-48,1)	(239,3)	(-12,49)	(232,6)	(233,6)	(234,6)	(236,4)	(237,4)	(238,3)	(240,2)	(227,3)	(231,7)	(230,5)	(-28,21)	
L1D 50>	(-50,66)	(224,2)	(237,5)	(241,1)	(232,6)	(-49,4)	(234,5)	(236,5)	(231,6)	(233,4)	(235,6)	(238,2)	(239,2)	(240,2)	(230,5)	(229,4)	
L1D 51>	(-51,125)	(0,9)	(239,6)	(-14,33)	(232,9)	(-50,1)	(236,8)	(238,6)	(231,9)	(233,8)	(240,3)	(230,7)	(234,9)	(235,9)	(237,5)	(229,9)	
L1D 52>	(-52,66)	(228,3)	(-19,3)	(0,6)	(232,3)	(1,2)	(226,3)	(235,5)	(236,3)	(238,2)	(224,2)	(227,2)	(231,4)	(230,4)	(-12,55)	(229,4)	
L1D 53>	(-53,51)	(0,4)	(-32,1)	(-33,77)	(229,3)	(232,5)	(228,4)	(-12,120)	(230,4)	(235,4)	(225,3)	(234,3)	(226,3)	(227,3)	(231,4)	(233,3)	
L1D 54>	(-54,84)	(0,5)	(9,91)	(226,4)	(232,6)	(234,5)	(224,1)	(225,3)	(228,4)	(233,4)	(231,4)	(-33,66)	(235,4)	(230,7)	(229,5)	(236,3)	
L1D 55>	(-55,66)	(0,3)	(236,3)	(224,1)	(226,2)	(232,3)	(233,2)	(235,3)	(239,1)	(228,1)	(231,3)	(-54,1)	(225,1)	(229,1)	(230,2)	(234,4)	
L1D 56>	(-56,65)	(0,2)	(238,2)	(224,2)	(232,2)	(229,2)	(233,3)	(225,1)	(237,2)	(227,1)	(-55,1)	(-58,4)	(239,1)	(231,1)	(230,1)	(234,3)	
L1D 57>	(-57,127)	(228,4)	(236,4)	(0,5)	(240,2)	(232,5)	(235,3)	(237,3)	(239,2)	(231,2)	(-56,4)	(234,4)	(224,1)	(230,2)	(238,2)	(229,4)	
L1D 58>	(-58,126)	(235,3)	(238,2)	(0,6)	(242,2)	(224,1)	(237,4)	(239,1)	(241,2)	(231,5)	(-57,6)	(232,1)	(234,3)	(236,4)	(230,3)	(240,1)	
L1D 59>	(-59,65)	(233,1)	(0,3)	(237,1)	(240,1)	(232,2)	(239,1)	(228,1)	(231,2)	(234,2)	(236,2)	(224,1)	(230,1)	(-58,1)	(229,2)	(235,1)	
L1D 60>	(-60,64)	(235,2)	(0,4)	(239,1)	(227,1)	(232,1)	(234,2)	(224,1)	(231,2)	(236,1)	(238,1)	(240,1)	(230,1)	(233,1)	(229,1)	(-59,1)	
L1D 61>	(-61,127)	(0,9)	(237,3)	(241,2)	(232,2)	(234,3)	(236,4)	(231,3)	(238,3)	(240,2)	(230,3)	(235,4)	(229,2)	(-60,2)	(224,1)	(227,1)	
L1D 62>	(-62,64)	(0,5)	(239,1)	(224,1)	(232,1)	(233,1)	(234,1)	(236,1)	(238,1)	(231,2)	(240,1)	(237,1)	(229,1)	(-61,2)	(230,0)	(228,1)	
L1D 63>	(-63,35)	(234,1)	(229,1)	(0,2)	(224,0)	(232,0)	(-12,91)	(236,1)	(226,1)	(228,1)	(225,0)	(233,0)	(235,1)	(230,0)	(-2,0)	(231,0)	
L1D 64>	(-64,126)	(234,4)	(236,4)	(239,2)	(0,6)	(225,2)	(232,5)	(238,2)	(224,1)	(242,1)	(231,3)	(233,3)	(235,4)	(237,2)	(230,3)	(229,2)	
L1D 65>	(-65,68)	(234,3)	(0,3)	(238,1)	(227,0)	(232,2)	(240,0)	(242,0)	(231,1)	(-64,1)	(233,2)	(235,1)	(237,1)	(239,0)	(230,2)	(229,0)	
L1D 66>	(-66,125)	(0,7)	(236,5)	(224,1)	(243,1)	(232,4)	(233,3)	(235,4)	(239,3)	(241,2)	(242,1)	(231,6)	(-65,2)	(237,3)	(230,3)	(234,4)	
L1D 67>	(-67,66)	(0,4)	(238,2)	(234,1)	(232,2)	(233,1)	(235,1)	(237,2)	(231,1)	(-66,1)	(239,1)	(224,1)	(230,1)	(-26,3)	(236,1)	(229,1)	
L1D 68>	(-68,64)	(233,1)	(224,1)	(0,5)	(240,1)	(232,2)	(235,2)	(239,1)	(231,1)	(-67,1)	(234,1)	(241,0)	(230,0)	(238,1)	(229,1)	(228,1)	
L1D 69>	(-69,126)	(235,5)	(224,1)	(0,6)	(242,2)	(233,3)	(237,4)	(239,1)	(241,2)	(231,4)	(-68,5)	(232,2)	(234,3)	(236,3)	(230,3)	(240,1)	
L1D 70>	(-70,126)	(233,5)	(0,8)	(237,4)	(228,3)	(232,4)	(239,3)	(224,1)	(231,4)	(234,2)	(236,4)	(238,1)	(230,2)	(-69,2)	(229,3)	(235,2)	
L1D 71>	(-71,125)	(235,5)	(0,5)	(239,2)	(242,2)	(232,3)	(234,4)	(227,2)	(231,5)	(236,3)	(238,2)	(224,1)	(230,5)	(233,5)	(229,3)	(-70,3)	
L1D 72>	(-72,65)	(0,2)	(237,2)	(239,1)	(241,1)	(232,2)	(234,1)	(231,2)	(236,1)	(240,1)	(230,2)	(235,2)	(229,1)	(224,1)	(-71,1)	(227,0)	
L1D 73>	(-73,64)	(0,5)	(239,2)	(226,1)	(232,1)	(233,2)	(231,2)	(235,2)	(238,1)	(240,1)	(237,1)	(224,1)	(-72,2)	(234,2)	(236,1)	(228,1)	
L1D 74>	(-74,70)	(226,1)	(237,1)	(0,3)	(241,1)	(232,1)	(235,2)	(236,2)	(238,1)	(240,1)	(231,1)	(233,2)	(234,1)	(239,1)	(224,1)	(-73,1)	
L1D 75>	(-75,66)	(0,3)	(236,2)	(239,1)	(224,1)	(232,2)	(238,1)	(240,0)	(231,1)	(233,1)	(235,2)	(237,1)	(230,1)	(229,1)	(234,1)	(228,2)	
L1D 76>	(-76,66)	(234,2)	(0,3)	(238,1)	(227,0)	(232,2)	(240,0)	(242,0)	(231,1)	(-75,1)	(233,2)	(235,1)	(237,1)	(239,0)	(230,2)	(229,1)	
L1D 77>	(-77,65)	(0,3)	(236,2)	(240,1)	(224,1)	(232,2)	(235,1)	(242,0)	(231,2)	(-76,1)	(233,1)	(237,1)	(239,1)	(241,0)	(230,1)	(234,1)	
L1D 78>	(-78,64)	(0,4)	(238,1)	(224,1)	(242,1)	(232,2)	(233,1)	(235,1)	(237,2)	(239,1)	(231,1)	(241,0)	(230,1)	(236,1)	(229,0)	(228,1)	
L1D 79>	(-79,127)	(233,4)	(228,2)	(0,9)	(240,2)	(232,4)	(235,4)	(237,3)	(239,2)	(231,3)	(224,1)	(234,4)	(241,1)	(230,3)	(238,2)	(229,2)	
L1D 80>	(-80,124)	(235,5)	(238,2)	(0,7)	(242,2)	(224,1)	(237,3)	(239,1)	(241,2)	(231,5)	(-79,5)	(234,3)	(236,5)	(230,2)	(232,1)	(240,1)	
L1D 81>	(-81,127)	(233,4)	(0,8)	(237,3)	(228,3)	(232,3)	(224,1)	(241,2)	(231,4)	(-80,3)	(234,4)	(236,3)	(238,2)	(230,2)	(229,4)	(235,2)	
L1D 82>	(-82,127)	(235,4)	(0,7)	(239,2)	(227,2)	(232,2)	(234,3)	(224,1)	(231,5)	(236,4)	(238,2)	(240,1)	(230,4)	(233,2)	(229,4)	(-81,3)	
L1D 83>	(-83,65)	(0,4)	(237,2)	(241,1)	(232,2)	(224,1)	(235,2)	(231,2)	(233,1)	(236,1)	(238,0)	(240,0)	(230,2)	(229,1)	(-82,1)	(239,0)	
L1D 84>	(-84,126)	(0,11)	(239,4)	(228,3)	(232,3)	(1,7)	(-83,6)	(233,4)	(236,4)	(231,5)	(238,2)	(240,2)	(224,1)	(229,2)	(230,2)	(234,3)	
L1D 85>	(-85,67)	(226,1)	(237,1)	(0,3)	(241,1)	(232,1)	(-84,1)	(1,1)	(233,2)	(235,2)	(238,1)	(234,1)	(224,1)	(230,1)	(239,1)	(229,2)	
L1D 86>	(-86,64)	(0,4)	(236,2)	(224,1)	(243,0)	(232,2)	(-85,3)	(240,0)	(242,0)	(231,1)	(235,1)	(237,1)	(230,2)	(233,0)	(229,1)	(238,1)	
L1D 87>	(-87,64)	(227,0)	(242,0)	(231,1)	(-86,2)	(0,3)	(235,1)	(237,1)	(239,1)	(230,2)	(232,2)	(234,1)	(229,1)	(236,1)	(228,1)	(233,1)	
L1D 88>	(-88,122)	(-87,3)	(233,2)	(235,2)	(237,2)	(239,2)	(226,1)	(230,3)	(231,5)	(0,6)	(234,4)	(236,4)	(229,3)	(238,2)	(227,1)	(232,3)	
L1D 89>	(-89,120)	(224,1)	(232,3)	(0,3)	(236,3)	(238,2)	(239,1)	(229,2)	(233,4)	(228,2)	(231,2)	(235,1)	(237,1)	(227,3)	(230,2)	(234,3)	
L1D 90>	(-90,116)	(-89,4)	(231,2)	(0,3)	(235,2)	(224,1)	(228,3)	(233,2)	(237,1)	(227,3)	(232,2)	(234,2)	(236,2)	(226,1)	(229,1)	(225,1)	
L1D 91>	(-91,116)	(-90,5)	(230,2)	(235,2)	(237,2)	(0,4)	(227,3)	(228,1)	(234,1)	(236,2)	(226,1)	(229,2)	(231,1)	(233,1)	(225,1)	(224,1)	
L1D 92>	(-92,113)	(-91,1)	(229,3)	(232,1)	(234,1)	(236,2)	(226,2)	(227,1)	(231,2)	(233,2)	(225,1)	(0,1)	(224,1)	(1,0)	(1,0)	(1,0)	
L1D 93>	(-93,109)	(-92,2)	(229,1)	(0,1)	(233,2)	(235,2)	(225,1)	(226,1)	(228,1)	(224,1)	(1,0)	(1,0)	(1,0)	(1,0)	(1,0)	(1,0)	
L1D 94>	(-94,106)	(1,1)	(-93,3)	(0,1)	(230,1)	(233,1)	(235,1)	(224,1)	(1,0)	(1,0)	(1,0)	(1,0)	(1,0)	(1,0)	(1,0)	(1,0)	
L1D 95>	(-95,107)	(-94,7)	(1,0)	(1,0)	(1,0)	(1,0)	(1,0)	(1,0)	(1,0)	(1,0)	(1,0)	(1,0)	(1,0)	(1,0)	(1,0)	(1,0)	
L1D 96>	(-96,107)	(-95,1)	(1,0)	(1,0)	(1,0)	(1,0)	(1,0)	(1,0)	(1,0)	(1,0)	(1,0)	(1,0)	(1,0)	(1,0)	(1,0)	(1,0)	
L1D 97>	(-97,105)	(1,1)	(-360,1)	(-96,1)	(1,0)	(1,0)	(1,0)	(1,0)	(1,0)	(1,0)	(1,0)	(1,0)	(1,0)	(1,0)	(1,0)	(1,0)	
L1D 98>	(-98,106)	(-97,6)	(1,0)	(1,0)	(1,0)	(1,0)	(1,0)	(1,0)	(1,0)	(1,0)	(1,0)	(1,0)	(1,0)	(1,0)	(1,0)	(1,0)	
L1D 99>	(-99,105)	(-98,2)	(1,0)	(1,0)	(1,0)	(1,0)	(1,0)	(1,0)	(1,0)	(1,0)	(1,0)	(1,0)	(1,0)	(1,0)	(1,0)	(1,0)	
L1D 100>	(-100,104)	(-99,3)	(1,0)	(1,0)	(1,0)	(1,0)	(1,0)	(1,0)	(1,0)	(1,0)	(1,0)	(1,0)	(1,0)	(1,0)	(1,0)	(1,0)	
L1D 101>	(-101,104)	(1,1)	(-100,4)	(1,0)	(1,0)	(1,0)	(1,0)	(1,0)	(1,0)	(1,0)	(1,0)	(1,0)	(1,0)	(1,0)	(1,0)	(1,0)	
L1D 102>	(-102,106)	(1,1)	(0,7)	(-101,5)	(-1,1)	(154,1)	(1,0)	(1,0)	(1,0)	(1,0)	(1,0)	(1,0)	(1,0)	(1,0)	(1,0)	(1,0)	
L1D 103>	(-103,107)	(-102,2)	(1,0)	(1,0)	(1,0)	(1,0)	(1,0)	(1,0)	(1,0)	(1,0)	(1,0)	(1,0)	(1,0)	(1,0)	(1,0)	(1,0)	
L1D 104>	(-104,106)	(-103,1)	(1,0)	(1,0)	(1,0)	(1,0)	(1,0)	(1,0)	(1,0)	(1,0)	(1,0)	(1,0)	(1,0)	(1,0)	(1,0)	(1,0)	
L1D 105>	(-105,105)	(-104,2)	(1,0)	(1,0)	(1,0)	(1,0)	(1,0)	(1,0)	(1,0)	(1,0)	(1,0)	(1,0)	(1,0)	(1,0)	(1,0)	(1,0)	
L1D 106>	(-106,106)	(-105,3)	(1,0)	(1,0)	(1,0)	(1,0)	(1,0)	(1,0)	(1,0)	(1,0)	(1,0)	(1,0)	(1,0)	(1,0)	(1,0)	(1,0)	
L1D 107>	(-107,107)	(-106,2)	(1,0)	(1,0)	(1,0)	(1,0)	(1,0)	(1,0)	(1,0)	(1,0)	(1,0)	(1,0)	(1,0)	(1,0)	(1,0)	(1,0)	
L1D 108>	(-108,104)	(2,1)	(1,2)	(-107,1)	(1,0)	(1,0)	(1,0)	(1,0)	(1,0)	(1,0)	(1,0)	(1,0)	(1,0)	(1,0)	(1,0)	(1,0)	
L1D 109>	(-109,106)	(1,4)	(-108,4)	(1,0)	(1,0)	(1,0)	(1,0)	(1,0)	(1,0)	(1,0)	(1,0)	(1,0)	(1,0)	(1,0)	(1,0)	(1,0)	
L1D 110>	(-110,105)	(-109,5)	(-1,2)	(1,0)	(1,0)	(1,0)	(1,0)	(1,0)	(1,0)	(1,0)	(1,0)	(1,0)	(1,0)	(1,0)	(1,0)	(1,0)	
L1D 111>	(-111,104)	(-110,3)	(1,0)	(1,0)	(1,0)	(1,0)	(1,0)	(1,0)	(1,0)	(1,0)	(1,0)	(1,0)	(1,0)	(1,0)	(1,0)	(1,0)	
L1D 112>	(-112,102)	(-111,4)	(1,0)	(1,0)	(1,0)	(1,0)	(1,0)	(1,0)	(1,0)	(1,0)	(1,0)	(1,0)	(1,0)	(1,0)	(1,0)	(1,0)	
L1D 113>	(-113,105)	(-112,6)	(1,0)	(1,0)	(1,0)	(1,0)	(1,0)	(1,0)	(1,0)	(1,0)	(1,0)	(1,0)	(1,0)	(1,0)	(1,0)	(1,0)	
L1D 114>	(-114,105)	(-113,3)	(1,0)	(1,0)	(1,0)	(1,0)	(1,0)	(1,0)	(1,0)	(1,0)	(1,0)	(1,0)	(1,0)	(1,0)	(1,0)	(1,0)	
L1D 115>	(-115,105)	(-114,3)	(1,0)	(1,0)	(1,0)	(1,0)	(1,0)	(1,0)	(1,0)	(1,0)	(1,0)	(1,0)	(1,0)	(1,0)	(1,0)	(1,0)	
L1D 116>	(-116,105)	(-115,3)	(1,0)	(1,0)	(1,0)	(1,0)	(1,0)	(1,0)	(1,0)	(1,0)	(1,0)	(1,0)	(1,0)	(1,0)	(1,0)	(1,0)	
L1D 117>	(-117,106)	(1,3)	(-116,3)	(1,0)	(1,0)	(1,0)	(1,0)	(1,0)	(1,0)	(1,0)	(1,0)	(1,0)	(1,0)	(1,0)	(1,0)	(1,0)	
L1D 118>	(-118,107)	(1,3)	(-117,13)	(-1,2)	(0,2)	(1,0)	(1,0)	(1,0)	(1,0)	(1,0)	(1,0)	(1,0)	(1,0)	(1,0)	(1,0)	(1,0)	
L1D 119>	(-119,105)	(-118,1)	(1,0)	(1,0)	(1,0)	(1,0)	(1,0)	(1,0)	(1,0)	(1,0)	(1,0)	(1,0)	(1,0)	(1,0)	(1,0)	(1,0)	
L1D 120>	(-120,105)	(-119,3)	(1,0)	(1,0)	(1,0)	(1,0)	(1,0)	(1,0)	(1,0)	(1,0)	(1,0)	(1,0)	(1,0)	(1,0)	(1,0)	(1,0)	
L1D 121>	(-121,106)	(-120,3)	(1,0)	(1,0)	(1,0)	(1,0)	(1,0)	(1,0)	(1,0)	(1,0)	(1,0)	(1,0)	(1,0)	(1,0)	(1,0)	(1,0)	
L1D 122>	(-122,105)	(-121,2)	(1,0)	(1,0)	(1,0)	(1,0)	(1,0)	(1,0)	(1,0)	(1,0)	(1,0)	(1,0)	(1,0)	(1,0)	(1,0)	(1,0)	
L1D 123>	(-123,103)	(-122,3)	(1,0)	(1,0)	(1,0)	(1,0)	(1,0)	(1,0)	(1,0)	(1,0)	(1,0)	(1,0)	(1,0)	(1,0)	(1,0)	(1,0)	
L1D 124>	(-124,105)	(-123,5)	(1,0)	(1,0)	(1,0)	(1,0)	(1,0)	(1,0)	(1,0)	(1,0)	(1,0)	(1,0)	(1,0)	(1,0)	(1,0)	(1,0)	
L1D 125>	(-125,105)	(-124,3)	(1,0)	(1,0)	(1,0)	(1,0)	(1,0)	(1,0)	(1,0)	(1,0)	(1,0)	(1,0)	(1,0)	(1,0)	(1,0)	(1,0)	
L1D 126>	(-126,105)	(1,1)	(-125,3)	(1,0)	(1,0)	(1,0)	(1,0)	(1,0)	(1,0)	(1,0)	(1,0)	(1,0)	(1,0)	(1,0)	(1,0)	(1,0)	
L1D 127>	(-127,106)	(-126,3)	(1,0)	(1,0)	(1,0)	(1,0)	(1,0)	(1,0)	(1,0)	(1,0)	(1,0)	(1,0)	(1,0)	(1,0)	(1,0)	(1,0)	
L1D 128>	(-128,106)	(-127,2)	(1,0)	(1,0)	(1,0)	(1,0)	(1,0)	(1,0)	(1,0)	(1,0)	(1,0)	(1,0)	(1,0)	(1,0)	(1,0)	(1,0)	
L1D 129>	(-129,108)	(-128,2)	(1,0)	(1,0)	(1,0)	(1,0)	(1,0)	(1,0)	(1,0)	(1,0)	(1,0)	(1,0)	(1,0)	(1,0)	(1,0)	(1,0)	
L1D 130>	(-130,105)	(1,2)	(126,1)	(1,0)	(1,0)	(1,0)	(1,0)	(1,0)	(1,0)	(1,0)	(1,0)	(1,0)	(1,0)	(1,0)	(1,0)	(1,0)	
L1D 131>	(-131,105)	(-1,5)	(0,1)	(-130,6)	(1,0)	(1,0)	(1,0)	(1,0)	(1,0)	(1,0)	(1,0)	(1,0)	(1,0)	(1,0)	(1,0)	(1,0)	
L1D 132>	(-132,106)	(-131,3)	(1,0)	(1,0)	(1,0)	(1,0)	(1,0)	(1,0)	(1,0)	(1,0)	(1,0)	(1,0)	(1,0)	(1,0)	(1,0)	(1,0)	
L1D 133>	(-133,105)	(-132,2)	(1,0)	(1,0)	(1,0)	(1,0)	(1,0)	(1,0)	(1,0)	(1,0)	(1,0)	(1,0)	(1,0)	(1,0)	(1,0)	(1,0)	
L1D 134>	(-134,103)	(-133,3)	(1,0)	(1,0)	(1,0)	(1,0)	(1,0)	(1,0)	(1,0)	(1,0)	(1,0)	(1,0)	(1,0)	(1,0)	(1,0)	(1,0)	
L1D 135>	(-135,104)	(-134,5)	(1,0)	(1,0)	(1,0)	(1,0)	(1,0)	(1,0)	(1,0)	(1,0)	(1,0)	(1,0)	(1,0)	(1,0)	(1,0)	(1,0)	
[...]
L1D 459>	(-459,119)	(-458,3)	(1,0)	(1,0)	(1,0)	(1,0)	(1,0)	(1,0)	(1,0)	(1,0)	(1,0)	(1,0)	(1,0)	(1,0)	(1,0)	(1,0)	
L1D 460>	(-460,116)	(-459,1)	(1,0)	(1,0)	(1,0)	(1,0)	(1,0)	(1,0)	(1,0)	(1,0)	(1,0)	(1,0)	(1,0)	(1,0)	(1,0)	(1,0)	
L1D 461>	(-461,118)	(-460,4)	(1,0)	(1,0)	(1,0)	(1,0)	(1,0)	(1,0)	(1,0)	(1,0)	(1,0)	(1,0)	(1,0)	(1,0)	(1,0)	(1,0)	
L1D 462>	(-462,117)	(-461,2)	(1,0)	(1,0)	(1,0)	(1,0)	(1,0)	(1,0)	(1,0)	(1,0)	(1,0)	(1,0)	(1,0)	(1,0)	(1,0)	(1,0)	
L1D 463>	(-463,116)	(-462,3)	(1,0)	(1,0)	(1,0)	(1,0)	(1,0)	(1,0)	(1,0)	(1,0)	(1,0)	(1,0)	(1,0)	(1,0)	(1,0)	(1,0)	
L1D 464>	(-464,114)	(-463,4)	(1,0)	(1,0)	(1,0)	(1,0)	(1,0)	(1,0)	(1,0)	(1,0)	(1,0)	(1,0)	(1,0)	(1,0)	(1,0)	(1,0)	
L1D 465>	(-465,117)	(-464,6)	(1,0)	(1,0)	(1,0)	(1,0)	(1,0)	(1,0)	(1,0)	(1,0)	(1,0)	(1,0)	(1,0)	(1,0)	(1,0)	(1,0)	
L1D 466>	(-466,117)	(-465,3)	(1,0)	(1,0)	(1,0)	(1,0)	(1,0)	(1,0)	(1,0)	(1,0)	(1,0)	(1,0)	(1,0)	(1,0)	(1,0)	(1,0)	
L1D 467>	(-467,117)	(-466,3)	(1,0)	(1,0)	(1,0)	(1,0)	(1,0)	(1,0)	(1,0)	(1,0)	(1,0)	(1,0)	(1,0)	(1,0)	(1,0)	(1,0)	
L1D 468>	(-468,116)	(-467,3)	(1,0)	(1,0)	(1,0)	(1,0)	(1,0)	(1,0)	(1,0)	(1,0)	(1,0)	(1,0)	(1,0)	(1,0)	(1,0)	(1,0)	
L1D 469>	(-469,117)	(-468,4)	(1,0)	(1,0)	(1,0)	(1,0)	(1,0)	(1,0)	(1,0)	(1,0)	(1,0)	(1,0)	(1,0)	(1,0)	(1,0)	(1,0)	
L1D 470>	(-470,119)	(-469,3)	(1,0)	(1,0)	(1,0)	(1,0)	(1,0)	(1,0)	(1,0)	(1,0)	(1,0)	(1,0)	(1,0)	(1,0)	(1,0)	(1,0)	
L1D 471>	(-471,116)	(-470,1)	(1,0)	(1,0)	(1,0)	(1,0)	(1,0)	(1,0)	(1,0)	(1,0)	(1,0)	(1,0)	(1,0)	(1,0)	(1,0)	(1,0)	
L1D 472>	(-472,116)	(-471,4)	(1,0)	(1,0)	(1,0)	(1,0)	(1,0)	(1,0)	(1,0)	(1,0)	(1,0)	(1,0)	(1,0)	(1,0)	(1,0)	(1,0)	
L1D 473>	(-473,118)	(-472,3)	(1,0)	(1,0)	(1,0)	(1,0)	(1,0)	(1,0)	(1,0)	(1,0)	(1,0)	(1,0)	(1,0)	(1,0)	(1,0)	(1,0)	
L1D 474>	(-474,117)	(-473,2)	(1,0)	(1,0)	(1,0)	(1,0)	(1,0)	(1,0)	(1,0)	(1,0)	(1,0)	(1,0)	(1,0)	(1,0)	(1,0)	(1,0)	
L1D 475>	(-475,115)	(-474,3)	(1,0)	(1,0)	(1,0)	(1,0)	(1,0)	(1,0)	(1,0)	(1,0)	(1,0)	(1,0)	(1,0)	(1,0)	(1,0)	(1,0)	
L1D 476>	(-476,116)	(-475,5)	(1,0)	(1,0)	(1,0)	(1,0)	(1,0)	(1,0)	(1,0)	(1,0)	(1,0)	(1,0)	(1,0)	(1,0)	(1,0)	(1,0)	
L1D 477>	(-477,117)	(-476,4)	(1,0)	(1,0)	(1,0)	(1,0)	(1,0)	(1,0)	(1,0)	(1,0)	(1,0)	(1,0)	(1,0)	(1,0)	(1,0)	(1,0)	
L1D 478>	(-478,116)	(-477,3)	(1,0)	(1,0)	(1,0)	(1,0)	(1,0)	(1,0)	(1,0)	(1,0)	(1,0)	(1,0)	(1,0)	(1,0)	(1,0)	(1,0)	
L1D 479>	(-479,117)	(-478,4)	(1,0)	(1,0)	(1,0)	(1,0)	(1,0)	(1,0)	(1,0)	(1,0)	(1,0)	(1,0)	(1,0)	(1,0)	(1,0)	(1,0)	
L1D 480>	(-480,117)	(-479,3)	(1,0)	(1,0)	(1,0)	(1,0)	(1,0)	(1,0)	(1,0)	(1,0)	(1,0)	(1,0)	(1,0)	(1,0)	(1,0)	(1,0)	
L1D 481>	(-481,119)	(-480,3)	(1,0)	(1,0)	(1,0)	(1,0)	(1,0)	(1,0)	(1,0)	(1,0)	(1,0)	(1,0)	(1,0)	(1,0)	(1,0)	(1,0)	
L1D 482>	(-482,117)	(-481,1)	(1,0)	(1,0)	(1,0)	(1,0)	(1,0)	(1,0)	(1,0)	(1,0)	(1,0)	(1,0)	(1,0)	(1,0)	(1,0)	(1,0)	
L1D 483>	(-483,117)	(-482,3)	(1,0)	(1,0)	(1,0)	(1,0)	(1,0)	(1,0)	(1,0)	(1,0)	(1,0)	(1,0)	(1,0)	(1,0)	(1,0)	(1,0)	
L1D 484>	(-484,118)	(-483,3)	(1,0)	(1,0)	(1,0)	(1,0)	(1,0)	(1,0)	(1,0)	(1,0)	(1,0)	(1,0)	(1,0)	(1,0)	(1,0)	(1,0)	
L1D 485>	(-485,106)	(-484,2)	(1,0)	(1,0)	(1,0)	(1,0)	(1,0)	(1,0)	(1,0)	(1,0)	(1,0)	(1,0)	(1,0)	(1,0)	(1,0)	(1,0)	
L1D 486>	(-486,92)	(-485,2)	(1,0)	(1,0)	(1,0)	(1,0)	(1,0)	(1,0)	(1,0)	(1,0)	(1,0)	(1,0)	(1,0)	(1,0)	(1,0)	(1,0)	
L1D 487>	(-487,83)	(-486,4)	(1,0)	(1,0)	(1,0)	(1,0)	(1,0)	(1,0)	(1,0)	(1,0)	(1,0)	(1,0)	(1,0)	(1,0)	(1,0)	(1,0)	
L1D 488>	(-488,70)	(-487,1)	(1,0)	(1,0)	(1,0)	(1,0)	(1,0)	(1,0)	(1,0)	(1,0)	(1,0)	(1,0)	(1,0)	(1,0)	(1,0)	(1,0)	
L1D 489>	(-489,58)	(-488,2)	(1,0)	(1,0)	(1,0)	(1,0)	(1,0)	(1,0)	(1,0)	(1,0)	(1,0)	(1,0)	(1,0)	(1,0)	(1,0)	(1,0)	
L1D 490>	(-490,46)	(-489,2)	(1,0)	(1,0)	(1,0)	(1,0)	(1,0)	(1,0)	(1,0)	(1,0)	(1,0)	(1,0)	(1,0)	(1,0)	(1,0)	(1,0)	
L1D 491>	(-491,35)	(-490,2)	(1,0)	(1,0)	(1,0)	(1,0)	(1,0)	(1,0)	(1,0)	(1,0)	(1,0)	(1,0)	(1,0)	(1,0)	(1,0)	(1,0)	
L1D 492>	(-492,24)	(-491,1)	(1,0)	(1,0)	(1,0)	(1,0)	(1,0)	(1,0)	(1,0)	(1,0)	(1,0)	(1,0)	(1,0)	(1,0)	(1,0)	(1,0)	
L1D 493>	(-493,12)	(1,0)	(1,0)	(1,0)	(1,0)	(1,0)	(1,0)	(1,0)	(1,0)	(1,0)	(1,0)	(1,0)	(1,0)	(1,0)	(1,0)	(1,0)	
L1D 494>	(1,0)	(1,0)	(1,0)	(1,0)	(1,0)	(1,0)	(1,0)	(1,0)	(1,0)	(1,0)	(1,0)	(1,0)	(1,0)	(1,0)	(1,0)	(1,0)	
L1D 495>	(1,0)	(1,0)	(1,0)	(1,0)	(1,0)	(1,0)	(1,0)	(1,0)	(1,0)	(1,0)	(1,0)	(1,0)	(1,0)	(1,0)	(1,0)	(1,0)	
L1D 496>	(1,0)	(1,0)	(1,0)	(1,0)	(1,0)	(1,0)	(1,0)	(1,0)	(1,0)	(1,0)	(1,0)	(1,0)	(1,0)	(1,0)	(1,0)	(1,0)	
L1D 497>	(1,0)	(1,0)	(1,0)	(1,0)	(1,0)	(1,0)	(1,0)	(1,0)	(1,0)	(1,0)	(1,0)	(1,0)	(1,0)	(1,0)	(1,0)	(1,0)	
L1D 498>	(1,0)	(1,0)	(1,0)	(1,0)	(1,0)	(1,0)	(1,0)	(1,0)	(1,0)	(1,0)	(1,0)	(1,0)	(1,0)	(1,0)	(1,0)	(1,0)	
L1D 499>	(1,0)	(1,0)	(1,0)	(1,0)	(1,0)	(1,0)	(1,0)	(1,0)	(1,0)	(1,0)	(1,0)	(1,0)	(1,0)	(1,0)	(1,0)	(1,0)	
L1D 500>	(1,0)	(1,0)	(1,0)	(1,0)	(1,0)	(1,0)	(1,0)	(1,0)	(1,0)	(1,0)	(1,0)	(1,0)	(1,0)	(1,0)	(1,0)	(1,0)	
L1D 501>	(1,0)	(1,0)	(1,0)	(1,0)	(1,0)	(1,0)	(1,0)	(1,0)	(1,0)	(1,0)	(1,0)	(1,0)	(1,0)	(1,0)	(1,0)	(1,0)	
L1D 502>	(1,0)	(1,0)	(1,0)	(1,0)	(1,0)	(1,0)	(1,0)	(1,0)	(1,0)	(1,0)	(1,0)	(1,0)	(1,0)	(1,0)	(1,0)	(1,0)	
L1D 503>	(1,0)	(1,0)	(1,0)	(1,0)	(1,0)	(1,0)	(1,0)	(1,0)	(1,0)	(1,0)	(1,0)	(1,0)	(1,0)	(1,0)	(1,0)	(1,0)	
L1D 504>	(1,0)	(1,0)	(1,0)	(1,0)	(1,0)	(1,0)	(1,0)	(1,0)	(1,0)	(1,0)	(1,0)	(1,0)	(1,0)	(1,0)	(1,0)	(1,0)	
L1D 505>	(1,0)	(1,0)	(1,0)	(1,0)	(1,0)	(1,0)	(1,0)	(1,0)	(1,0)	(1,0)	(1,0)	(1,0)	(1,0)	(1,0)	(1,0)	(1,0)	
L1D 506>	(1,0)	(1,0)	(1,0)	(1,0)	(1,0)	(1,0)	(1,0)	(1,0)	(1,0)	(1,0)	(1,0)	(1,0)	(1,0)	(1,0)	(1,0)	(1,0)	
L1D 507>	(1,0)	(1,0)	(1,0)	(1,0)	(1,0)	(1,0)	(1,0)	(1,0)	(1,0)	(1,0)	(1,0)	(1,0)	(1,0)	(1,0)	(1,0)	(1,0)	
L1D 508>	(1,0)	(1,0)	(1,0)	(1,0)	(1,0)	(1,0)	(1,0)	(1,0)	(1,0)	(1,0)	(1,0)	(1,0)	(1,0)	(1,0)	(1,0)	(1,0)	
L1D 509>	(1,0)	(1,0)	(1,0)	(1,0)	(1,0)	(1,0)	(1,0)	(1,0)	(1,0)	(1,0)	(1,0)	(1,0)	(1,0)	(1,0)	(1,0)	(1,0)	
L1D 510>	(1,0)	(1,0)	(1,0)	(1,0)	(1,0)	(1,0)	(1,0)	(1,0)	(1,0)	(1,0)	(1,0)	(1,0)	(1,0)	(1,0)	(1,0)	(1,0)	
L1D 511>	(1,0)	(1,0)	(1,0)	(1,0)	(1,0)	(1,0)	(1,0)	(1,0)	(1,0)	(1,0)	(1,0)	(1,0)	(1,0)	(1,0)	(1,0)	(1,0)	

L2C -64>	(1,239)	(26,1)	(-37,0)	(2,28)	(4,7)	(28,38)	(31,2)	(6,7)	(0,0)	(29,8)	(27,25)	(5,2)	(30,5)	(3,27)	(-34,0)	(32,0)	
L2C -63>	(1,0)	(1,0)	(1,0)	(1,0)	(1,0)	(1,0)	(1,0)	(1,0)	(1,0)	(1,0)	(1,0)	(1,0)	(1,0)	(1,0)	(1,0)	(1,0)	
L2C -62>	(1,2)	(1,0)	(1,0)	(1,0)	(1,0)	(1,0)	(1,0)	(1,0)	(1,0)	(1,0)	(1,0)	(1,0)	(1,0)	(1,0)	(1,0)	(1,0)	
L2C -61>	(1,1)	(1,0)	(1,0)	(1,0)	(1,0)	(1,0)	(1,0)	(1,0)	(1,0)	(1,0)	(1,0)	(1,0)	(1,0)	(1,0)	(1,0)	(1,0)	
L2C -60>	(1,1)	(2,1)	(1,0)	(1,0)	(1,0)	(1,0)	(1,0)	(1,0)	(1,0)	(1,0)	(1,0)	(1,0)	(1,0)	(1,0)	(1,0)	(1,0)	
L2C -59>	(1,2)	(1,0)	(1,0)	(1,0)	(1,0)	(1,0)	(1,0)	(1,0)	(1,0)	(1,0)	(1,0)	(1,0)	(1,0)	(1,0)	(1,0)	(1,0)	
L2C -58>	(1,5)	(1,0)	(1,0)	(1,0)	(1,0)	(1,0)	(1,0)	(1,0)	(1,0)	(1,0)	(1,0)	(1,0)	(1,0)	(1,0)	(1,0)	(1,0)	
L2C -57>	(1,0)	(1,0)	(1,0)	(1,0)	(1,0)	(1,0)	(1,0)	(1,0)	(1,0)	(1,0)	(1,0)	(1,0)	(1,0)	(1,0)	(1,0)	(1,0)	
L2C -56>	(1,1)	(1,0)	(1,0)	(1,0)	(1,0)	(1,0)	(1,0)	(1,0)	(1,0)	(1,0)	(1,0)	(1,0)	(1,0)	(1,0)	(1,0)	(1,0)	
L2C -55>	(1,2)	(5,1)	(1,0)	(1,0)	(1,0)	(1,0)	(1,0)	(1,0)	(1,0)	(1,0)	(1,0)	(1,0)	(1,0)	(1,0)	(1,0)	(1,0)	
L2C -54>	(1,2)	(1,0)	(1,0)	(1,0)	(1,0)	(1,0)	(1,0)	(1,0)	(1,0)	(1,0)	(1,0)	(1,0)	(1,0)	(1,0)	(1,0)	(1,0)	
L2C -53>	(1,1)	(1,0)	(1,0)	(1,0)	(1,0)	(1,0)	(1,0)	(1,0)	(1,0)	(1,0)	(1,0)	(1,0)	(1,0)	(1,0)	(1,0)	(1,0)	
L2C -52>	(1,1)	(2,1)	(1,0)	(1,0)	(1,0)	(1,0)	(1,0)	(1,0)	(1,0)	(1,0)	(1,0)	(1,0)	(1,0)	(1,0)	(1,0)	(1,0)	
L2C -51>	(1,1)	(1,0)	(1,0)	(1,0)	(1,0)	(1,0)	(1,0)	(1,0)	(1,0)	(1,0)	(1,0)	(1,0)	(1,0)	(1,0)	(1,0)	(1,0)	
L2C -50>	(1,0)	(1,0)	(1,0)	(1,0)	(1,0)	(1,0)	(1,0)	(1,0)	(1,0)	(1,0)	(1,0)	(1,0)	(1,0)	(1,0)	(1,0)	(1,0)	
L2C -49>	(1,5)	(2,1)	(1,0)	(1,0)	(1,0)	(1,0)	(1,0)	(1,0)	(1,0)	(1,0)	(1,0)	(1,0)	(1,0)	(1,0)	(1,0)	(1,0)	
L2C -48>	(1,3)	(1,0)	(1,0)	(1,0)	(1,0)	(1,0)	(1,0)	(1,0)	(1,0)	(1,0)	(1,0)	(1,0)	(1,0)	(1,0)	(1,0)	(1,0)	
L2C -47>	(1,4)	(1,0)	(1,0)	(1,0)	(1,0)	(1,0)	(1,0)	(1,0)	(1,0)	(1,0)	(1,0)	(1,0)	(1,0)	(1,0)	(1,0)	(1,0)	
L2C -46>	(1,7)	(33,1)	(1,0)	(1,0)	(1,0)	(1,0)	(1,0)	(1,0)	(1,0)	(1,0)	(1,0)	(1,0)	(1,0)	(1,0)	(1,0)	(1,0)	
L2C -45>	(1,3)	(43,1)	(1,0)	(1,0)	(1,0)	(1,0)	(1,0)	(1,0)	(1,0)	(1,0)	(1,0)	(1,0)	(1,0)	(1,0)	(1,0)	(1,0)	
L2C -44>	(42,1)	(1,10)	(4,1)	(3,1)	(44,1)	(1,0)	(1,0)	(1,0)	(1,0)	(1,0)	(1,0)	(1,0)	(1,0)	(1,0)	(1,0)	(1,0)	
L2C -43>	(6,1)	(1,4)	(43,1)	(1,0)	(1,0)	(1,0)	(1,0)	(1,0)	(1,0)	(1,0)	(1,0)	(1,0)	(1,0)	(1,0)	(1,0)	(1,0)	
L2C -42>	(1,3)	(42,1)	(7,1)	(1,0)	(1,0)	(1,0)	(1,0)	(1,0)	(1,0)	(1,0)	(1,0)	(1,0)	(1,0)	(1,0)	(1,0)	(1,0)	
L2C -41>	(6,1)	(1,6)	(2,1)	(1,0)	(1,0)	(1,0)	(1,0)	(1,0)	(1,0)	(1,0)	(1,0)	(1,0)	(1,0)	(1,0)	(1,0)	(1,0)	
L2C -40>	(1,8)	(6,1)	(2,1)	(1,0)	(1,0)	(1,0)	(1,0)	(1,0)	(1,0)	(1,0)	(1,0)	(1,0)	(1,0)	(1,0)	(1,0)	(1,0)	
L2C -39>	(2,2)	(1,24)	(6,2)	(7,1)	(1,0)	(1,0)	(1,0)	(1,0)	(1,0)	(1,0)	(1,0)	(1,0)	(1,0)	(1,0)	(1,0)	(1,0)	
L2C -38>	(2,3)	(1,16)	(3,1)	(1,0)	(1,0)	(1,0)	(1,0)	(1,0)	(1,0)	(1,0)	(1,0)	(1,0)	(1,0)	(1,0)	(1,0)	(1,0)	
L2C -37>	(1,20)	(-2,1)	(3,2)	(2,2)	(4,1)	(1,0)	(1,0)	(1,0)	(1,0)	(1,0)	(1,0)	(1,0)	(1,0)	(1,0)	(1,0)	(1,0)	
L2C -36>	(1,10)	(3,1)	(1,0)	(1,0)	(1,0)	(1,0)	(1,0)	(1,0)	(1,0)	(1,0)	(1,0)	(1,0)	(1,0)	(1,0)	(1,0)	(1,0)	
L2C -35>	(36,1)	(-2,1)	(1,17)	(31,1)	(4,1)	(2,1)	(33,1)	(1,0)	(1,0)	(1,0)	(1,0)	(1,0)	(1,0)	(1,0)	(1,0)	(1,0)	
L2C -34>	(35,1)	(1,31)	(2,1)	(3,1)	(1,0)	(1,0)	(1,0)	(1,0)	(1,0)	(1,0)	(1,0)	(1,0)	(1,0)	(1,0)	(1,0)	(1,0)	
L2C -33>	(1,36)	(34,2)	(4,1)	(32,1)	(2,2)	(1,0)	(1,0)	(1,0)	(1,0)	(1,0)	(1,0)	(1,0)	(1,0)	(1,0)	(1,0)	(1,0)	
L2C -32>	(1,33)	(33,58)	(2,2)	(37,1)	(1,0)	(1,0)	(1,0)	(1,0)	(1,0)	(1,0)	(1,0)	(1,0)	(1,0)	(1,0)	(1,0)	(1,0)	
L2C -31>	(1,45)	(27,1)	(32,88)	(33,7)	(3,1)	(30,2)	(1,0)	(1,0)	(1,0)	(1,0)	(1,0)	(1,0)	(1,0)	(1,0)	(1,0)	(1,0)	
L2C -30>	(1,246)	(34,1)	(2,16)	(31,81)	(32,7)	(33,1)	(1,0)	(1,0)	(1,0)	(1,0)	(1,0)	(1,0)	(1,0)	(1,0)	(1,0)	(1,0)	
L2C -29>	(1,153)	(30,128)	(33,0)	(34,0)	(2,1)	(-5,0)	(31,2)	(1,0)	(1,0)	(1,0)	(1,0)	(1,0)	(1,0)	(1,0)	(1,0)	(1,0)	
L2C -28>	(29,149)	(1,4)	(30,2)	(33,1)	(32,0)	(31,0)	(1,0)	(1,0)	(1,0)	(1,0)	(1,0)	(1,0)	(1,0)	(1,0)	(1,0)	(1,0)	
L2C -27>	(28,125)	(1,21)	(31,2)	(29,6)	(32,4)	(-1,1)	(33,5)	(30,2)	(1,0)	(1,0)	(1,0)	(1,0)	(1,0)	(1,0)	(1,0)	(1,0)	
L2C -26>	(1,11)	(30,1)	(28,1)	(27,2)	(1,0)	(1,0)	(1,0)	(1,0)	(1,0)	(1,0)	(1,0)	(1,0)	(1,0)	(1,0)	(1,0)	(1,0)	
L2C -25>	(1,2)	(1,0)	(1,0)	(1,0)	(1,0)	(1,0)	(1,0)	(1,0)	(1,0)	(1,0)	(1,0)	(1,0)	(1,0)	(1,0)	(1,0)	(1,0)	
L2C -24>	(-1,1)	(26,1)	(1,4)	(1,0)	(1,0)	(1,0)	(1,0)	(1,0)	(1,0)	(1,0)	(1,0)	(1,0)	(1,0)	(1,0)	(1,0)	(1,0)	
L2C -23>	(1,4)	(1,0)	(1,0)	(1,0)	(1,0)	(1,0)	(1,0)	(1,0)	(1,0)	(1,0)	(1,0)	(1,0)	(1,0)	(1,0)	(1,0)	(1,0)	
L2C -22>	(1,1)	(1,0)	(1,0)	(1,0)	(1,0)	(1,0)	(1,0)	(1,0)	(1,0)	(1,0)	(1,0)	(1,0)	(1,0)	(1,0)	(1,0)	(1,0)	
L2C -21>	(1,0)	(1,0)	(1,0)	(1,0)	(1,0)	(1,0)	(1,0)	(1,0)	(1,0)	(1,0)	(1,0)	(1,0)	(1,0)	(1,0)	(1,0)	(1,0)	
L2C -20>	(1,4)	(1,0)	(1,0)	(1,0)	(1,0)	(1,0)	(1,0)	(1,0)	(1,0)	(1,0)	(1,0)	(1,0)	(1,0)	(1,0)	(1,0)	(1,0)	
L2C -19>	(20,1)	(0,1)	(1,0)	(1,0)	(1,0)	(1,0)	(1,0)	(1,0)	(1,0)	(1,0)	(1,0)	(1,0)	(1,0)	(1,0)	(1,0)	(1,0)	
L2C -18>	(1,1)	(31,1)	(0,1)	(3,2)	(4,1)	(1,0)	(1,0)	(1,0)	(1,0)	(1,0)	(1,0)	(1,0)	(1,0)	(1,0)	(1,0)	(1,0)	
L2C -17>	(1,0)	(1,0)	(1,0)	(1,0)	(1,0)	(1,0)	(1,0)	(1,0)	(1,0)	(1,0)	(1,0)	(1,0)	(1,0)	(1,0)	(1,0)	(1,0)	
L2C -16>	(2,1)	(0,2)	(1,2)	(1,0)	(1,0)	(1,0)	(1,0)	(1,0)	(1,0)	(1,0)	(1,0)	(1,0)	(1,0)	(1,0)	(1,0)	(1,0)	
L2C -15>	(1,1)	(15,1)	(1,0)	(1,0)	(1,0)	(1,0)	(1,0)	(1,0)	(1,0)	(1,0)	(1,0)	(1,0)	(1,0)	(1,0)	(1,0)	(1,0)	
L2C -14>	(0,7)	(14,3)	(-4,1)	(1,1)	(1,0)	(1,0)	(1,0)	(1,0)	(1,0)	(1,0)	(1,0)	(1,0)	(1,0)	(1,0)	(1,0)	(1,0)	
L2C -13>	(0,2)	(14,1)	(1,1)	(1,0)	(1,0)	(1,0)	(1,0)	(1,0)	(1,0)	(1,0)	(1,0)	(1,0)	(1,0)	(1,0)	(1,0)	(1,0)	
L2C -12>	(1,2)	(1,0)	(1,0)	(1,0)	(1,0)	(1,0)	(1,0)	(1,0)	(1,0)	(1,0)	(1,0)	(1,0)	(1,0)	(1,0)	(1,0)	(1,0)	
L2C -11>	(-2,1)	(2,2)	(1,1)	(12,2)	(1,0)	(1,0)	(1,0)	(1,0)	(1,0)	(1,0)	(1,0)	(1,0)	(1,0)	(1,0)	(1,0)	(1,0)	
L2C -10>	(1,1)	(1,0)	(1,0)	(1,0)	(1,0)	(1,0)	(1,0)	(1,0)	(1,0)	(1,0)	(1,0)	(1,0)	(1,0)	(1,0)	(1,0)	(1,0)	
L2C -9>	(1,3)	(0,1)	(-3,1)	(1,0)	(1,0)	(1,0)	(1,0)	(1,0)	(1,0)	(1,0)	(1,0)	(1,0)	(1,0)	(1,0)	(1,0)	(1,0)	
L2C -8>	(0,1)	(1,3)	(8,1)	(1,0)	(1,0)	(1,0)	(1,0)	(1,0)	(1,0)	(1,0)	(1,0)	(1,0)	(1,0)	(1,0)	(1,0)	(1,0)	
L2C -7>	(-2,1)	(-1,1)	(1,0)	(1,0)	(1,0)	(1,0)	(1,0)	(1,0)	(1,0)	(1,0)	(1,0)	(1,0)	(1,0)	(1,0)	(1,0)	(1,0)	
L2C -6>	(38,1)	(7,1)	(1,1)	(2,1)	(1,0)	(1,0)	(1,0)	(1,0)	(1,0)	(1,0)	(1,0)	(1,0)	(1,0)	(1,0)	(1,0)	(1,0)	
L2C -5>	(-30,1)	(19,1)	(39,1)	(-1,1)	(1,0)	(1,0)	(1,0)	(1,0)	(1,0)	(1,0)	(1,0)	(1,0)	(1,0)	(1,0)	(1,0)	(1,0)	
L2C -4>	(1,12)	(3,6)	(4,2)	(5,1)	(6,1)	(42,1)	(1,0)	(1,0)	(1,0)	(1,0)	(1,0)	(1,0)	(1,0)	(1,0)	(1,0)	(1,0)	
L2C -3>	(33,1)	(1,73)	(2,6)	(4,4)	(0,3)	(5,1)	(1,0)	(1,0)	(1,0)	(1,0)	(1,0)	(1,0)	(1,0)	(1,0)	(1,0)	(1,0)	
L2C -2>	(1,140)	(3,6)	(2,14)	(0,6)	(38,1)	(5,1)	(6,1)	(1,0)	(1,0)	(1,0)	(1,0)	(1,0)	(1,0)	(1,0)	(1,0)	(1,0)	
L2C -1>	(2,23)	(33,1)	(1,236)	(0,11)	(3,7)	(-3,4)	(-4,2)	(-58,1)	(28,1)	(-1,4)	(-2,1)	(27,1)	(17,1)	(4,1)	(7,1)	(1,0)	
L2C 0>	(0,104)	(1,155)	(2,2)	(-63,3)	(32,1)	(-2,0)	(11,0)	(-6,0)	(14,1)	(16,0)	(23,0)	(-1,6)	(-18,1)	(-46,1)	(-4,0)	(-54,3)	
L2C 1>	(1,160)	(3,1)	(-28,2)	(-1,0)	(-27,0)	(26,0)	(0,0)	(27,15)	(2,2)	(30,0)	(29,2)	(-29,0)	(28,2)	(31,0)	(-5,0)	(-12,0)	
L2C 2>	(26,6)	(1,207)	(2,9)	(27,43)	(29,3)	(3,0)	(28,5)	(-1,0)	(0,0)	(30,1)	(31,2)	(-36,0)	(4,0)	(-30,0)	(-2,0)	(1,0)	
L2C 3>	(1,142)	(27,55)	(2,2)	(29,2)	(30,2)	(28,5)	(-37,0)	(3,0)	(26,2)	(-26,0)	(-30,0)	(-1,0)	(33,0)	(1,0)	(1,0)	(1,0)	
L2C 4>	(1,155)	(29,6)	(2,7)	(27,48)	(28,11)	(30,0)	(-46,0)	(26,2)	(0,0)	(-2,0)	(-38,0)	(-37,0)	(1,0)	(1,0)	(1,0)	(1,0)	
L2C 5>	(27,97)	(1,130)	(29,1)	(28,35)	(26,3)	(2,0)	(20,0)	(-18,0)	(-1,1)	(-4,1)	(-59,0)	(-40,0)	(-32,0)	(0,0)	(1,0)	(1,0)	
L2C 6>	(27,236)	(28,33)	(1,95)	(-36,1)	(-1,2)	(26,5)	(-5,0)	(-39,2)	(-35,0)	(34,0)	(-11,0)	(-32,0)	(1,0)	(1,0)	(1,0)	(1,0)	
L2C 7>	(5,1)	(29,1)	(-1,3)	(1,1)	(-10,1)	(1,0)	(1,0)	(1,0)	(1,0)	(1,0)	(1,0)	(1,0)	(1,0)	(1,0)	(1,0)	(1,0)	
L2C 8>	(-30,1)	(1,2)	(-8,1)	(1,0)	(1,0)	(1,0)	(1,0)	(1,0)	(1,0)	(1,0)	(1,0)	(1,0)	(1,0)	(1,0)	(1,0)	(1,0)	
L2C 9>	(-18,1)	(0,1)	(1,0)	(1,0)	(1,0)	(1,0)	(1,0)	(1,0)	(1,0)	(1,0)	(1,0)	(1,0)	(1,0)	(1,0)	(1,0)	(1,0)	
L2C 10>	(1,0)	(1,0)	(1,0)	(1,0)	(1,0)	(1,0)	(1,0)	(1,0)	(1,0)	(1,0)	(1,0)	(1,0)	(1,0)	(1,0)	(1,0)	(1,0)	
L2C 11>	(21,1)	(1,1)	(1,0)	(1,0)	(1,0)	(1,0)	(1,0)	(1,0)	(1,0)	(1,0)	(1,0)	(1,0)	(1,0)	(1,0)	(1,0)	(1,0)	
L2C 12>	(-26,1)	(27,1)	(1,2)	(1,0)	(1,0)	(1,0)	(1,0)	(1,0)	(1,0)	(1,0)	(1,0)	(1,0)	(1,0)	(1,0)	(1,0)	(1,0)	
L2C 13>	(-13,1)	(1,0)	(1,0)	(1,0)	(1,0)	(1,0)	(1,0)	(1,0)	(1,0)	(1,0)	(1,0)	(1,0)	(1,0)	(1,0)	(1,0)	(1,0)	
L2C 14>	(5,1)	(0,1)	(-14,5)	(-2,1)	(1,0)	(1,0)	(1,0)	(1,0)	(1,0)	(1,0)	(1,0)	(1,0)	(1,0)	(1,0)	(1,0)	(1,0)	
L2C 15>	(17,1)	(-15,1)	(0,3)	(1,0)	(1,0)	(1,0)	(1,0)	(1,0)	(1,0)	(1,0)	(1,0)	(1,0)	(1,0)	(1,0)	(1,0)	(1,0)	
L2C 16>	(16,1)	(1,0)	(1,0)	(1,0)	(1,0)	(1,0)	(1,0)	(1,0)	(1,0)	(1,0)	(1,0)	(1,0)	(1,0)	(1,0)	(1,0)	(1,0)	
L2C 17>	(-31,1)	(-14,2)	(1,0)	(1,0)	(1,0)	(1,0)	(1,0)	(1,0)	(1,0)	(1,0)	(1,0)	(1,0)	(1,0)	(1,0)	(1,0)	(1,0)	
L2C 18>	(1,1)	(-5,1)	(1,0)	(1,0)	(1,0)	(1,0)	(1,0)	(1,0)	(1,0)	(1,0)	(1,0)	(1,0)	(1,0)	(1,0)	(1,0)	(1,0)	
L2C 19>	(1,2)	(-18,1)	(1,0)	(1,0)	(1,0)	(1,0)	(1,0)	(1,0)	(1,0)	(1,0)	(1,0)	(1,0)	(1,0)	(1,0)	(1,0)	(1,0)	
L2C 20>	(32,1)	(1,1)	(1,0)	(1,0)	(1,0)	(1,0)	(1,0)	(1,0)	(1,0)	(1,0)	(1,0)	(1,0)	(1,0)	(1,0)	(1,0)	(1,0)	
L2C 21>	(-31,1)	(1,0)	(1,0)	(1,0)	(1,0)	(1,0)	(1,0)	(1,0)	(1,0)	(1,0)	(1,0)	(1,0)	(1,0)	(1,0)	(1,0)	(1,0)	
L2C 22>	(1,0)	(1,0)	(1,0)	(1,0)	(1,0)	(1,0)	(1,0)	(1,0)	(1,0)	(1,0)	(1,0)	(1,0)	(1,0)	(1,0)	(1,0)	(1,0)	
L2C 23>	(8,1)	(1,0)	(1,0)	(1,0)	(1,0)	(1,0)	(1,0)	(1,0)	(1,0)	(1,0)	(1,0)	(1,0)	(1,0)	(1,0)	(1,0)	(1,0)	
L2C 24>	(1,0)	(1,0)	(1,0)	(1,0)	(1,0)	(1,0)	(1,0)	(1,0)	(1,0)	(1,0)	(1,0)	(1,0)	(1,0)	(1,0)	(1,0)	(1,0)	
L2C 25>	(-26,1)	(1,0)	(1,0)	(1,0)	(1,0)	(1,0)	(1,0)	(1,0)	(1,0)	(1,0)	(1,0)	(1,0)	(1,0)	(1,0)	(1,0)	(1,0)	
L2C 26>	(1,146)	(3,3)	(5,0)	(6,7)	(4,6)	(2,5)	(-29,0)	(-33,0)	(1,0)	(1,0)	(1,0)	(1,0)	(1,0)	(1,0)	(1,0)	(1,0)	
L2C 27>	(5,3)	(1,193)	(6,16)	(2,12)	(3,7)	(-32,0)	(4,8)	(-26,0)	(-45,0)	(-46,0)	(1,0)	(1,0)	(1,0)	(1,0)	(1,0)	(1,0)	
L2C 28>	(1,202)	(2,19)	(3,6)	(-27,7)	(4,3)	(-26,0)	(-33,1)	(6,1)	(5,0)	(-61,0)	(1,0)	(1,0)	(1,0)	(1,0)	(1,0)	(1,0)	
L2C 29>	(1,222)	(-28,53)	(2,7)	(-27,2)	(5,1)	(6,2)	(3,2)	(4,6)	(1,0)	(1,0)	(1,0)	(1,0)	(1,0)	(1,0)	(1,0)	(1,0)	
L2C 30>	(1,201)	(-29,48)	(3,5)	(2,12)	(4,2)	(-27,2)	(-28,14)	(6,1)	(5,1)	(-56,0)	(-58,0)	(1,0)	(1,0)	(1,0)	(1,0)	(1,0)	
L2C 31>	(-27,2)	(1,248)	(3,3)	(-30,35)	(-28,7)	(-29,7)	(2,17)	(4,5)	(6,6)	(-38,0)	(1,0)	(1,0)	(1,0)	(1,0)	(1,0)	(1,0)	
L2C 32>	(1,222)	(2,8)	(-27,2)	(-29,10)	(-31,4)	(4,4)	(5,3)	(-20,0)	(0,0)	(-28,8)	(3,5)	(-30,17)	(6,1)	(1,0)	(1,0)	(1,0)	
L2C 33>	(-31,2)	(-30,5)	(1,75)	(3,1)	(4,2)	(2,10)	(-29,11)	(-28,5)	(6,5)	(-27,1)	(1,0)	(1,0)	(1,0)	(1,0)	(1,0)	(1,0)	
L2C 34>	(1,5)	(2,1)	(4,1)	(-28,2)	(-30,1)	(1,0)	(1,0)	(1,0)	(1,0)	(1,0)	(1,0)	(1,0)	(1,0)	(1,0)	(1,0)	(1,0)	
L2C 35>	(1,3)	(1,0)	(1,0)	(1,0)	(1,0)	(1,0)	(1,0)	(1,0)	(1,0)	(1,0)	(1,0)	(1,0)	(1,0)	(1,0)	(1,0)	(1,0)	
L2C 36>	(-29,1)	(1,1)	(1,0)	(1,0)	(1,0)	(1,0)	(1,0)	(1,0)	(1,0)	(1,0)	(1,0)	(1,0)	(1,0)	(1,0)	(1,0)	(1,0)	
L2C 37>	(1,2)	(1,0)	(1,0)	(1,0)	(1,0)	(1,0)	(1,0)	(1,0)	(1,0)	(1,0)	(1,0)	(1,0)	(1,0)	(1,0)	(1,0)	(1,0)	
L2C 38>	(-6,1)	(1,1)	(1,0)	(1,0)	(1,0)	(1,0)	(1,0)	(1,0)	(1,0)	(1,0)	(1,0)	(1,0)	(1,0)	(1,0)	(1,0)	(1,0)	
L2C 39>	(1,2)	(1,0)	(1,0)	(1,0)	(1,0)	(1,0)	(1,0)	(1,0)	(1,0)	(1,0)	(1,0)	(1,0)	(1,0)	(1,0)	(1,0)	(1,0)	
L2C 40>	(1,0)	(1,0)	(1,0)	(1,0)	(1,0)	(1,0)	(1,0)	(1,0)	(1,0)	(1,0)	(1,0)	(1,0)	(1,0)	(1,0)	(1,0)	(1,0)	
L2C 41>	(-40,1)	(1,0)	(1,0)	(1,0)	(1,0)	(1,0)	(1,0)	(1,0)	(1,0)	(1,0)	(1,0)	(1,0)	(1,0)	(1,0)	(1,0)	(1,0)	
L2C 42>	(1,1)	(-41,3)	(-39,1)	(1,0)	(1,0)	(1,0)	(1,0)	(1,0)	(1,0)	(1,0)	(1,0)	(1,0)	(1,0)	(1,0)	(1,0)	(1,0)	
L2C 43>	(-42,2)	(1,0)	(1,0)	(1,0)	(1,0)	(1,0)	(1,0)	(1,0)	(1,0)	(1,0)	(1,0)	(1,0)	(1,0)	(1,0)	(1,0)	(1,0)	
L2C 44>	(-43,2)	(1,0)	(1,0)	(1,0)	(1,0)	(1,0)	(1,0)	(1,0)	(1,0)	(1,0)	(1,0)	(1,0)	(1,0)	(1,0)	(1,0)	(1,0)	
L2C 45>	(-44,2)	(1,0)	(1,0)	(1,0)	(1,0)	(1,0)	(1,0)	(1,0)	(1,0)	(1,0)	(1,0)	(1,0)	(1,0)	(1,0)	(1,0)	(1,0)	
L2C 46>	(1,0)	(1,0)	(1,0)	(1,0)	(1,0)	(1,0)	(1,0)	(1,0)	(1,0)	(1,0)	(1,0)	(1,0)	(1,0)	(1,0)	(1,0)	(1,0)	
L2C 47>	(1,0)	(1,0)	(1,0)	(1,0)	(1,0)	(1,0)	(1,0)	(1,0)	(1,0)	(1,0)	(1,0)	(1,0)	(1,0)	(1,0)	(1,0)	(1,0)	
L2C 48>	(1,0)	(1,0)	(1,0)	(1,0)	(1,0)	(1,0)	(1,0)	(1,0)	(1,0)	(1,0)	(1,0)	(1,0)	(1,0)	(1,0)	(1,0)	(1,0)	
L2C 49>	(1,0)	(1,0)	(1,0)	(1,0)	(1,0)	(1,0)	(1,0)	(1,0)	(1,0)	(1,0)	(1,0)	(1,0)	(1,0)	(1,0)	(1,0)	(1,0)	
L2C 50>	(1,0)	(1,0)	(1,0)	(1,0)	(1,0)	(1,0)	(1,0)	(1,0)	(1,0)	(1,0)	(1,0)	(1,0)	(1,0)	(1,0)	(1,0)	(1,0)	
L2C 51>	(1,0)	(1,0)	(1,0)	(1,0)	(1,0)	(1,0)	(1,0)	(1,0)	(1,0)	(1,0)	(1,0)	(1,0)	(1,0)	(1,0)	(1,0)	(1,0)	
L2C 52>	(1,0)	(1,0)	(1,0)	(1,0)	(1,0)	(1,0)	(1,0)	(1,0)	(1,0)	(1,0)	(1,0)	(1,0)	(1,0)	(1,0)	(1,0)	(1,0)	
L2C 53>	(1,0)	(1,0)	(1,0)	(1,0)	(1,0)	(1,0)	(1,0)	(1,0)	(1,0)	(1,0)	(1,0)	(1,0)	(1,0)	(1,0)	(1,0)	(1,0)	
L2C 54>	(1,0)	(1,0)	(1,0)	(1,0)	(1,0)	(1,0)	(1,0)	(1,0)	(1,0)	(1,0)	(1,0)	(1,0)	(1,0)	(1,0)	(1,0)	(1,0)	
L2C 55>	(1,0)	(1,0)	(1,0)	(1,0)	(1,0)	(1,0)	(1,0)	(1,0)	(1,0)	(1,0)	(1,0)	(1,0)	(1,0)	(1,0)	(1,0)	(1,0)	
L2C 56>	(1,0)	(1,0)	(1,0)	(1,0)	(1,0)	(1,0)	(1,0)	(1,0)	(1,0)	(1,0)	(1,0)	(1,0)	(1,0)	(1,0)	(1,0)	(1,0)	
L2C 57>	(1,0)	(1,0)	(1,0)	(1,0)	(1,0)	(1,0)	(1,0)	(1,0)	(1,0)	(1,0)	(1,0)	(1,0)	(1,0)	(1,0)	(1,0)	(1,0)	
L2C 58>	(1,0)	(1,0)	(1,0)	(1,0)	(1,0)	(1,0)	(1,0)	(1,0)	(1,0)	(1,0)	(1,0)	(1,0)	(1,0)	(1,0)	(1,0)	(1,0)	
L2C 59>	(1,0)	(1,0)	(1,0)	(1,0)	(1,0)	(1,0)	(1,0)	(1,0)	(1,0)	(1,0)	(1,0)	(1,0)	(1,0)	(1,0)	(1,0)	(1,0)	
L2C 60>	(1,0)	(1,0)	(1,0)	(1,0)	(1,0)	(1,0)	(1,0)	(1,0)	(1,0)	(1,0)	(1,0)	(1,0)	(1,0)	(1,0)	(1,0)	(1,0)	
L2C 61>	(1,0)	(1,0)	(1,0)	(1,0)	(1,0)	(1,0)	(1,0)	(1,0)	(1,0)	(1,0)	(1,0)	(1,0)	(1,0)	(1,0)	(1,0)	(1,0)	
L2C 62>	(1,0)	(1,0)	(1,0)	(1,0)	(1,0)	(1,0)	(1,0)	(1,0)	(1,0)	(1,0)	(1,0)	(1,0)	(1,0)	(1,0)	(1,0)	(1,0)	
L2C 63>	(1,0)	(1,0)	(1,0)	(1,0)	(1,0)	(1,0)	(1,0)	(1,0)	(1,0)	(1,0)	(1,0)	(1,0)	(1,0)	(1,0)	(1,0)	(1,0)	

DRAM Statistics
 CHANNEL 0
 RQ ROW_BUFFER_HIT:     497849  ROW_BUFFER_MISS:     420559
 DBUS_CONGESTED:     591120
 WQ ROW_BUFFER_HIT:       8131  ROW_BUFFER_MISS:      88254  FULL:          0

 AVG_CONGESTED_CYCLE: 6
