
*** ChampSim Multicore Out-of-Order Simulator ***

Warmup Instructions: 1000000
Simulation Instructions: 10000000
Number of CPUs: 1
LLC sets: 2048
LLC ways: 16
Off-chip DRAM Size: 4096 MB Channels: 1 Width: 64-bit Data Rate: 3200 MT/s

CPU 0 runs /home/virtualcse/Data-Prefetching/ChampSim/dpc3_traces/654.roms_s-1021B.champsimtrace.xz
Ultra pref. initializing...
Ultra pref. initialized
Ultra pref. initializing...
Ultra pref. initialized

Warmup complete CPU 0 instructions: 1000001 cycles: 311406 (Simulation time: 0 hr 0 min 2 sec) 

Heartbeat CPU 0 instructions: 10000003 cycles: 5128559 heartbeat IPC: 1.94987 cumulative IPC: 1.86832 (Simulation time: 0 hr 0 min 13 sec) 
Finished CPU 0 instructions: 10000000 cycles: 5348728 cumulative IPC: 1.8696 (Simulation time: 0 hr 0 min 14 sec) 

CPU 0 Branch Prediction Accuracy: 98% MPKI: 3.0693 Average ROB Occupancy at Mispredict: 117.299

ChampSim completed all CPUs

Region of Interest Statistics

CPU 0 cumulative IPC: 1.8696 instructions: 10000000 cycles: 5348728
L1D TOTAL     ACCESS:    3061919  HIT:    3054898  MISS:       7021
L1D LOAD      ACCESS:     972990  HIT:     970700  MISS:       2290
L1D RFO       ACCESS:     678841  HIT:     678635  MISS:        206
L1D PREFETCH  ACCESS:    1410088  HIT:    1405563  MISS:       4525
L1D WRITEBACK ACCESS:          0  HIT:          0  MISS:          0
L1D PREFETCH  REQUESTED:   14081674  ISSUED:   12974818  USEFUL:         61  USELESS:       4434
L1D AVERAGE MISS LATENCY: 66.6949 cycles
L1I TOTAL     ACCESS:     454458  HIT:     454444  MISS:         14
L1I LOAD      ACCESS:     454458  HIT:     454444  MISS:         14
L1I RFO       ACCESS:          0  HIT:          0  MISS:          0
L1I PREFETCH  ACCESS:          0  HIT:          0  MISS:          0
L1I WRITEBACK ACCESS:          0  HIT:          0  MISS:          0
L1I PREFETCH  REQUESTED:          0  ISSUED:          0  USEFUL:          0  USELESS:          0
L1I AVERAGE MISS LATENCY: 122.429 cycles
L2C TOTAL     ACCESS:      15790  HIT:      11912  MISS:       3878
L2C LOAD      ACCESS:       2300  HIT:       1974  MISS:        326
L2C RFO       ACCESS:        206  HIT:        156  MISS:         50
L2C PREFETCH  ACCESS:      13072  HIT:       9570  MISS:       3502
L2C WRITEBACK ACCESS:        212  HIT:        212  MISS:          0
L2C PREFETCH  REQUESTED:     107512  ISSUED:      33917  USEFUL:        314  USELESS:        233
L2C AVERAGE MISS LATENCY: 235.521 cycles
LLC TOTAL     ACCESS:       3881  HIT:        103  MISS:       3778
LLC LOAD      ACCESS:        326  HIT:         19  MISS:        307
LLC RFO       ACCESS:         50  HIT:          1  MISS:         49
LLC PREFETCH  ACCESS:       3502  HIT:         80  MISS:       3422
LLC WRITEBACK ACCESS:          3  HIT:          3  MISS:          0
LLC PREFETCH  REQUESTED:          0  ISSUED:          0  USEFUL:          4  USELESS:          0
LLC AVERAGE MISS LATENCY: 201.688 cycles
Major fault: 0 Minor fault: 532

L1D -512>	(2,0)	(8,0)	(-44,0)	(-1,0)	(-20,0)	(0,8)	(-28,0)	(1,84)	(17,0)	(1,0)	(1,0)	(1,0)	(1,0)	(1,0)	(1,0)	(1,0)	
L1D -511>	(1,0)	(1,0)	(1,0)	(1,0)	(1,0)	(1,0)	(1,0)	(1,0)	(1,0)	(1,0)	(1,0)	(1,0)	(1,0)	(1,0)	(1,0)	(1,0)	
L1D -510>	(1,0)	(1,0)	(1,0)	(1,0)	(1,0)	(1,0)	(1,0)	(1,0)	(1,0)	(1,0)	(1,0)	(1,0)	(1,0)	(1,0)	(1,0)	(1,0)	
L1D -509>	(1,0)	(1,0)	(1,0)	(1,0)	(1,0)	(1,0)	(1,0)	(1,0)	(1,0)	(1,0)	(1,0)	(1,0)	(1,0)	(1,0)	(1,0)	(1,0)	
L1D -508>	(1,0)	(1,0)	(1,0)	(1,0)	(1,0)	(1,0)	(1,0)	(1,0)	(1,0)	(1,0)	(1,0)	(1,0)	(1,0)	(1,0)	(1,0)	(1,0)	
L1D -507>	(1,0)	(1,0)	(1,0)	(1,0)	(1,0)	(1,0)	(1,0)	(1,0)	(1,0)	(1,0)	(1,0)	(1,0)	(1,0)	(1,0)	(1,0)	(1,0)	
L1D -506>	(1,0)	(1,0)	(1,0)	(1,0)	(1,0)	(1,0)	(1,0)	(1,0)	(1,0)	(1,0)	(1,0)	(1,0)	(1,0)	(1,0)	(1,0)	(1,0)	
L1D -505>	(1,0)	(1,0)	(1,0)	(1,0)	(1,0)	(1,0)	(1,0)	(1,0)	(1,0)	(1,0)	(1,0)	(1,0)	(1,0)	(1,0)	(1,0)	(1,0)	
L1D -504>	(1,0)	(1,0)	(1,0)	(1,0)	(1,0)	(1,0)	(1,0)	(1,0)	(1,0)	(1,0)	(1,0)	(1,0)	(1,0)	(1,0)	(1,0)	(1,0)	
L1D -503>	(1,0)	(1,0)	(1,0)	(1,0)	(1,0)	(1,0)	(1,0)	(1,0)	(1,0)	(1,0)	(1,0)	(1,0)	(1,0)	(1,0)	(1,0)	(1,0)	
L1D -502>	(1,0)	(1,0)	(1,0)	(1,0)	(1,0)	(1,0)	(1,0)	(1,0)	(1,0)	(1,0)	(1,0)	(1,0)	(1,0)	(1,0)	(1,0)	(1,0)	
L1D -501>	(1,0)	(1,0)	(1,0)	(1,0)	(1,0)	(1,0)	(1,0)	(1,0)	(1,0)	(1,0)	(1,0)	(1,0)	(1,0)	(1,0)	(1,0)	(1,0)	
L1D -500>	(1,0)	(1,0)	(1,0)	(1,0)	(1,0)	(1,0)	(1,0)	(1,0)	(1,0)	(1,0)	(1,0)	(1,0)	(1,0)	(1,0)	(1,0)	(1,0)	
L1D -499>	(1,0)	(1,0)	(1,0)	(1,0)	(1,0)	(1,0)	(1,0)	(1,0)	(1,0)	(1,0)	(1,0)	(1,0)	(1,0)	(1,0)	(1,0)	(1,0)	
L1D -498>	(1,0)	(1,0)	(1,0)	(1,0)	(1,0)	(1,0)	(1,0)	(1,0)	(1,0)	(1,0)	(1,0)	(1,0)	(1,0)	(1,0)	(1,0)	(1,0)	
L1D -497>	(1,0)	(1,0)	(1,0)	(1,0)	(1,0)	(1,0)	(1,0)	(1,0)	(1,0)	(1,0)	(1,0)	(1,0)	(1,0)	(1,0)	(1,0)	(1,0)	
L1D -496>	(1,0)	(1,0)	(1,0)	(1,0)	(1,0)	(1,0)	(1,0)	(1,0)	(1,0)	(1,0)	(1,0)	(1,0)	(1,0)	(1,0)	(1,0)	(1,0)	
L1D -495>	(1,0)	(1,0)	(1,0)	(1,0)	(1,0)	(1,0)	(1,0)	(1,0)	(1,0)	(1,0)	(1,0)	(1,0)	(1,0)	(1,0)	(1,0)	(1,0)	
L1D -494>	(1,0)	(1,0)	(1,0)	(1,0)	(1,0)	(1,0)	(1,0)	(1,0)	(1,0)	(1,0)	(1,0)	(1,0)	(1,0)	(1,0)	(1,0)	(1,0)	
L1D -493>	(1,0)	(1,0)	(1,0)	(1,0)	(1,0)	(1,0)	(1,0)	(1,0)	(1,0)	(1,0)	(1,0)	(1,0)	(1,0)	(1,0)	(1,0)	(1,0)	
L1D -492>	(1,0)	(1,0)	(1,0)	(1,0)	(1,0)	(1,0)	(1,0)	(1,0)	(1,0)	(1,0)	(1,0)	(1,0)	(1,0)	(1,0)	(1,0)	(1,0)	
L1D -491>	(1,0)	(1,0)	(1,0)	(1,0)	(1,0)	(1,0)	(1,0)	(1,0)	(1,0)	(1,0)	(1,0)	(1,0)	(1,0)	(1,0)	(1,0)	(1,0)	
L1D -490>	(1,0)	(1,0)	(1,0)	(1,0)	(1,0)	(1,0)	(1,0)	(1,0)	(1,0)	(1,0)	(1,0)	(1,0)	(1,0)	(1,0)	(1,0)	(1,0)	
L1D -489>	(1,0)	(1,0)	(1,0)	(1,0)	(1,0)	(1,0)	(1,0)	(1,0)	(1,0)	(1,0)	(1,0)	(1,0)	(1,0)	(1,0)	(1,0)	(1,0)	
L1D -488>	(1,0)	(1,0)	(1,0)	(1,0)	(1,0)	(1,0)	(1,0)	(1,0)	(1,0)	(1,0)	(1,0)	(1,0)	(1,0)	(1,0)	(1,0)	(1,0)	
L1D -487>	(1,0)	(1,0)	(1,0)	(1,0)	(1,0)	(1,0)	(1,0)	(1,0)	(1,0)	(1,0)	(1,0)	(1,0)	(1,0)	(1,0)	(1,0)	(1,0)	
L1D -486>	(1,0)	(1,0)	(1,0)	(1,0)	(1,0)	(1,0)	(1,0)	(1,0)	(1,0)	(1,0)	(1,0)	(1,0)	(1,0)	(1,0)	(1,0)	(1,0)	
L1D -485>	(1,0)	(1,0)	(1,0)	(1,0)	(1,0)	(1,0)	(1,0)	(1,0)	(1,0)	(1,0)	(1,0)	(1,0)	(1,0)	(1,0)	(1,0)	(1,0)	
L1D -484>	(1,0)	(1,0)	(1,0)	(1,0)	(1,0)	(1,0)	(1,0)	(1,0)	(1,0)	(1,0)	(1,0)	(1,0)	(1,0)	(1,0)	(1,0)	(1,0)	
L1D -483>	(1,0)	(1,0)	(1,0)	(1,0)	(1,0)	(1,0)	(1,0)	(1,0)	(1,0)	(1,0)	(1,0)	(1,0)	(1,0)	(1,0)	(1,0)	(1,0)	
L1D -482>	(2,21)	(1,0)	(1,0)	(1,0)	(1,0)	(1,0)	(1,0)	(1,0)	(1,0)	(1,0)	(1,0)	(1,0)	(1,0)	(1,0)	(1,0)	(1,0)	
L1D -481>	(6,3)	(1,3)	(1,0)	(1,0)	(1,0)	(1,0)	(1,0)	(1,0)	(1,0)	(1,0)	(1,0)	(1,0)	(1,0)	(1,0)	(1,0)	(1,0)	
L1D -480>	(6,17)	(4,2)	(5,3)	(7,2)	(1,0)	(1,0)	(1,0)	(1,0)	(1,0)	(1,0)	(1,0)	(1,0)	(1,0)	(1,0)	(1,0)	(1,0)	
L1D -479>	(1,0)	(1,0)	(1,0)	(1,0)	(1,0)	(1,0)	(1,0)	(1,0)	(1,0)	(1,0)	(1,0)	(1,0)	(1,0)	(1,0)	(1,0)	(1,0)	
L1D -478>	(1,0)	(1,0)	(1,0)	(1,0)	(1,0)	(1,0)	(1,0)	(1,0)	(1,0)	(1,0)	(1,0)	(1,0)	(1,0)	(1,0)	(1,0)	(1,0)	
L1D -477>	(2,33)	(1,0)	(1,0)	(1,0)	(1,0)	(1,0)	(1,0)	(1,0)	(1,0)	(1,0)	(1,0)	(1,0)	(1,0)	(1,0)	(1,0)	(1,0)	
L1D -476>	(1,3)	(1,0)	(1,0)	(1,0)	(1,0)	(1,0)	(1,0)	(1,0)	(1,0)	(1,0)	(1,0)	(1,0)	(1,0)	(1,0)	(1,0)	(1,0)	
L1D -475>	(2,6)	(1,2)	(6,16)	(1,0)	(1,0)	(1,0)	(1,0)	(1,0)	(1,0)	(1,0)	(1,0)	(1,0)	(1,0)	(1,0)	(1,0)	(1,0)	
L1D -474>	(1,0)	(1,0)	(1,0)	(1,0)	(1,0)	(1,0)	(1,0)	(1,0)	(1,0)	(1,0)	(1,0)	(1,0)	(1,0)	(1,0)	(1,0)	(1,0)	
L1D -473>	(1,0)	(1,0)	(1,0)	(1,0)	(1,0)	(1,0)	(1,0)	(1,0)	(1,0)	(1,0)	(1,0)	(1,0)	(1,0)	(1,0)	(1,0)	(1,0)	
L1D -472>	(1,0)	(1,0)	(1,0)	(1,0)	(1,0)	(1,0)	(1,0)	(1,0)	(1,0)	(1,0)	(1,0)	(1,0)	(1,0)	(1,0)	(1,0)	(1,0)	
L1D -471>	(1,0)	(1,0)	(1,0)	(1,0)	(1,0)	(1,0)	(1,0)	(1,0)	(1,0)	(1,0)	(1,0)	(1,0)	(1,0)	(1,0)	(1,0)	(1,0)	
L1D -470>	(1,0)	(1,0)	(1,0)	(1,0)	(1,0)	(1,0)	(1,0)	(1,0)	(1,0)	(1,0)	(1,0)	(1,0)	(1,0)	(1,0)	(1,0)	(1,0)	
L1D -469>	(1,0)	(1,0)	(1,0)	(1,0)	(1,0)	(1,0)	(1,0)	(1,0)	(1,0)	(1,0)	(1,0)	(1,0)	(1,0)	(1,0)	(1,0)	(1,0)	
L1D -468>	(1,0)	(1,0)	(1,0)	(1,0)	(1,0)	(1,0)	(1,0)	(1,0)	(1,0)	(1,0)	(1,0)	(1,0)	(1,0)	(1,0)	(1,0)	(1,0)	
L1D -467>	(1,0)	(1,0)	(1,0)	(1,0)	(1,0)	(1,0)	(1,0)	(1,0)	(1,0)	(1,0)	(1,0)	(1,0)	(1,0)	(1,0)	(1,0)	(1,0)	
L1D -466>	(1,0)	(1,0)	(1,0)	(1,0)	(1,0)	(1,0)	(1,0)	(1,0)	(1,0)	(1,0)	(1,0)	(1,0)	(1,0)	(1,0)	(1,0)	(1,0)	
L1D -465>	(1,0)	(1,0)	(1,0)	(1,0)	(1,0)	(1,0)	(1,0)	(1,0)	(1,0)	(1,0)	(1,0)	(1,0)	(1,0)	(1,0)	(1,0)	(1,0)	
L1D -464>	(1,0)	(1,0)	(1,0)	(1,0)	(1,0)	(1,0)	(1,0)	(1,0)	(1,0)	(1,0)	(1,0)	(1,0)	(1,0)	(1,0)	(1,0)	(1,0)	
L1D -463>	(1,0)	(1,0)	(1,0)	(1,0)	(1,0)	(1,0)	(1,0)	(1,0)	(1,0)	(1,0)	(1,0)	(1,0)	(1,0)	(1,0)	(1,0)	(1,0)	
L1D -462>	(1,0)	(1,0)	(1,0)	(1,0)	(1,0)	(1,0)	(1,0)	(1,0)	(1,0)	(1,0)	(1,0)	(1,0)	(1,0)	(1,0)	(1,0)	(1,0)	
L1D -461>	(1,0)	(1,0)	(1,0)	(1,0)	(1,0)	(1,0)	(1,0)	(1,0)	(1,0)	(1,0)	(1,0)	(1,0)	(1,0)	(1,0)	(1,0)	(1,0)	
L1D -460>	(1,0)	(1,0)	(1,0)	(1,0)	(1,0)	(1,0)	(1,0)	(1,0)	(1,0)	(1,0)	(1,0)	(1,0)	(1,0)	(1,0)	(1,0)	(1,0)	
L1D -459>	(1,0)	(1,0)	(1,0)	(1,0)	(1,0)	(1,0)	(1,0)	(1,0)	(1,0)	(1,0)	(1,0)	(1,0)	(1,0)	(1,0)	(1,0)	(1,0)	
L1D -458>	(1,0)	(1,0)	(1,0)	(1,0)	(1,0)	(1,0)	(1,0)	(1,0)	(1,0)	(1,0)	(1,0)	(1,0)	(1,0)	(1,0)	(1,0)	(1,0)	
L1D -457>	(1,0)	(1,0)	(1,0)	(1,0)	(1,0)	(1,0)	(1,0)	(1,0)	(1,0)	(1,0)	(1,0)	(1,0)	(1,0)	(1,0)	(1,0)	(1,0)	
L1D -456>	(1,0)	(1,0)	(1,0)	(1,0)	(1,0)	(1,0)	(1,0)	(1,0)	(1,0)	(1,0)	(1,0)	(1,0)	(1,0)	(1,0)	(1,0)	(1,0)	
L1D -455>	(1,0)	(1,0)	(1,0)	(1,0)	(1,0)	(1,0)	(1,0)	(1,0)	(1,0)	(1,0)	(1,0)	(1,0)	(1,0)	(1,0)	(1,0)	(1,0)	
L1D -454>	(1,0)	(1,0)	(1,0)	(1,0)	(1,0)	(1,0)	(1,0)	(1,0)	(1,0)	(1,0)	(1,0)	(1,0)	(1,0)	(1,0)	(1,0)	(1,0)	
L1D -453>	(1,0)	(1,0)	(1,0)	(1,0)	(1,0)	(1,0)	(1,0)	(1,0)	(1,0)	(1,0)	(1,0)	(1,0)	(1,0)	(1,0)	(1,0)	(1,0)	
L1D -452>	(1,0)	(1,0)	(1,0)	(1,0)	(1,0)	(1,0)	(1,0)	(1,0)	(1,0)	(1,0)	(1,0)	(1,0)	(1,0)	(1,0)	(1,0)	(1,0)	
L1D -451>	(1,0)	(1,0)	(1,0)	(1,0)	(1,0)	(1,0)	(1,0)	(1,0)	(1,0)	(1,0)	(1,0)	(1,0)	(1,0)	(1,0)	(1,0)	(1,0)	
L1D -450>	(1,0)	(1,0)	(1,0)	(1,0)	(1,0)	(1,0)	(1,0)	(1,0)	(1,0)	(1,0)	(1,0)	(1,0)	(1,0)	(1,0)	(1,0)	(1,0)	
L1D -449>	(1,0)	(1,0)	(1,0)	(1,0)	(1,0)	(1,0)	(1,0)	(1,0)	(1,0)	(1,0)	(1,0)	(1,0)	(1,0)	(1,0)	(1,0)	(1,0)	
L1D -448>	(1,0)	(1,0)	(1,0)	(1,0)	(1,0)	(1,0)	(1,0)	(1,0)	(1,0)	(1,0)	(1,0)	(1,0)	(1,0)	(1,0)	(1,0)	(1,0)	
L1D -447>	(1,0)	(1,0)	(1,0)	(1,0)	(1,0)	(1,0)	(1,0)	(1,0)	(1,0)	(1,0)	(1,0)	(1,0)	(1,0)	(1,0)	(1,0)	(1,0)	
L1D -446>	(1,0)	(1,0)	(1,0)	(1,0)	(1,0)	(1,0)	(1,0)	(1,0)	(1,0)	(1,0)	(1,0)	(1,0)	(1,0)	(1,0)	(1,0)	(1,0)	
L1D -445>	(1,0)	(1,0)	(1,0)	(1,0)	(1,0)	(1,0)	(1,0)	(1,0)	(1,0)	(1,0)	(1,0)	(1,0)	(1,0)	(1,0)	(1,0)	(1,0)	
L1D -444>	(1,0)	(1,0)	(1,0)	(1,0)	(1,0)	(1,0)	(1,0)	(1,0)	(1,0)	(1,0)	(1,0)	(1,0)	(1,0)	(1,0)	(1,0)	(1,0)	
L1D -443>	(1,0)	(1,0)	(1,0)	(1,0)	(1,0)	(1,0)	(1,0)	(1,0)	(1,0)	(1,0)	(1,0)	(1,0)	(1,0)	(1,0)	(1,0)	(1,0)	
L1D -442>	(1,0)	(1,0)	(1,0)	(1,0)	(1,0)	(1,0)	(1,0)	(1,0)	(1,0)	(1,0)	(1,0)	(1,0)	(1,0)	(1,0)	(1,0)	(1,0)	
L1D -441>	(1,0)	(1,0)	(1,0)	(1,0)	(1,0)	(1,0)	(1,0)	(1,0)	(1,0)	(1,0)	(1,0)	(1,0)	(1,0)	(1,0)	(1,0)	(1,0)	
L1D -440>	(1,0)	(1,0)	(1,0)	(1,0)	(1,0)	(1,0)	(1,0)	(1,0)	(1,0)	(1,0)	(1,0)	(1,0)	(1,0)	(1,0)	(1,0)	(1,0)	
L1D -439>	(1,0)	(1,0)	(1,0)	(1,0)	(1,0)	(1,0)	(1,0)	(1,0)	(1,0)	(1,0)	(1,0)	(1,0)	(1,0)	(1,0)	(1,0)	(1,0)	
L1D -438>	(1,0)	(1,0)	(1,0)	(1,0)	(1,0)	(1,0)	(1,0)	(1,0)	(1,0)	(1,0)	(1,0)	(1,0)	(1,0)	(1,0)	(1,0)	(1,0)	
L1D -437>	(1,0)	(1,0)	(1,0)	(1,0)	(1,0)	(1,0)	(1,0)	(1,0)	(1,0)	(1,0)	(1,0)	(1,0)	(1,0)	(1,0)	(1,0)	(1,0)	
L1D -436>	(1,0)	(1,0)	(1,0)	(1,0)	(1,0)	(1,0)	(1,0)	(1,0)	(1,0)	(1,0)	(1,0)	(1,0)	(1,0)	(1,0)	(1,0)	(1,0)	
L1D -435>	(1,0)	(1,0)	(1,0)	(1,0)	(1,0)	(1,0)	(1,0)	(1,0)	(1,0)	(1,0)	(1,0)	(1,0)	(1,0)	(1,0)	(1,0)	(1,0)	
L1D -434>	(1,0)	(1,0)	(1,0)	(1,0)	(1,0)	(1,0)	(1,0)	(1,0)	(1,0)	(1,0)	(1,0)	(1,0)	(1,0)	(1,0)	(1,0)	(1,0)	
L1D -433>	(1,0)	(1,0)	(1,0)	(1,0)	(1,0)	(1,0)	(1,0)	(1,0)	(1,0)	(1,0)	(1,0)	(1,0)	(1,0)	(1,0)	(1,0)	(1,0)	
L1D -432>	(1,0)	(1,0)	(1,0)	(1,0)	(1,0)	(1,0)	(1,0)	(1,0)	(1,0)	(1,0)	(1,0)	(1,0)	(1,0)	(1,0)	(1,0)	(1,0)	
L1D -431>	(1,0)	(1,0)	(1,0)	(1,0)	(1,0)	(1,0)	(1,0)	(1,0)	(1,0)	(1,0)	(1,0)	(1,0)	(1,0)	(1,0)	(1,0)	(1,0)	
L1D -430>	(1,0)	(1,0)	(1,0)	(1,0)	(1,0)	(1,0)	(1,0)	(1,0)	(1,0)	(1,0)	(1,0)	(1,0)	(1,0)	(1,0)	(1,0)	(1,0)	
L1D -429>	(1,0)	(1,0)	(1,0)	(1,0)	(1,0)	(1,0)	(1,0)	(1,0)	(1,0)	(1,0)	(1,0)	(1,0)	(1,0)	(1,0)	(1,0)	(1,0)	
L1D -428>	(1,0)	(1,0)	(1,0)	(1,0)	(1,0)	(1,0)	(1,0)	(1,0)	(1,0)	(1,0)	(1,0)	(1,0)	(1,0)	(1,0)	(1,0)	(1,0)	
L1D -427>	(1,0)	(1,0)	(1,0)	(1,0)	(1,0)	(1,0)	(1,0)	(1,0)	(1,0)	(1,0)	(1,0)	(1,0)	(1,0)	(1,0)	(1,0)	(1,0)	
L1D -426>	(1,0)	(1,0)	(1,0)	(1,0)	(1,0)	(1,0)	(1,0)	(1,0)	(1,0)	(1,0)	(1,0)	(1,0)	(1,0)	(1,0)	(1,0)	(1,0)	
L1D -425>	(1,0)	(1,0)	(1,0)	(1,0)	(1,0)	(1,0)	(1,0)	(1,0)	(1,0)	(1,0)	(1,0)	(1,0)	(1,0)	(1,0)	(1,0)	(1,0)	
L1D -424>	(1,0)	(1,0)	(1,0)	(1,0)	(1,0)	(1,0)	(1,0)	(1,0)	(1,0)	(1,0)	(1,0)	(1,0)	(1,0)	(1,0)	(1,0)	(1,0)	
L1D -423>	(1,0)	(1,0)	(1,0)	(1,0)	(1,0)	(1,0)	(1,0)	(1,0)	(1,0)	(1,0)	(1,0)	(1,0)	(1,0)	(1,0)	(1,0)	(1,0)	
L1D -422>	(1,0)	(1,0)	(1,0)	(1,0)	(1,0)	(1,0)	(1,0)	(1,0)	(1,0)	(1,0)	(1,0)	(1,0)	(1,0)	(1,0)	(1,0)	(1,0)	
L1D -421>	(1,0)	(1,0)	(1,0)	(1,0)	(1,0)	(1,0)	(1,0)	(1,0)	(1,0)	(1,0)	(1,0)	(1,0)	(1,0)	(1,0)	(1,0)	(1,0)	
L1D -420>	(1,0)	(1,0)	(1,0)	(1,0)	(1,0)	(1,0)	(1,0)	(1,0)	(1,0)	(1,0)	(1,0)	(1,0)	(1,0)	(1,0)	(1,0)	(1,0)	
L1D -419>	(1,0)	(1,0)	(1,0)	(1,0)	(1,0)	(1,0)	(1,0)	(1,0)	(1,0)	(1,0)	(1,0)	(1,0)	(1,0)	(1,0)	(1,0)	(1,0)	
L1D -418>	(1,0)	(1,0)	(1,0)	(1,0)	(1,0)	(1,0)	(1,0)	(1,0)	(1,0)	(1,0)	(1,0)	(1,0)	(1,0)	(1,0)	(1,0)	(1,0)	
L1D -417>	(1,0)	(1,0)	(1,0)	(1,0)	(1,0)	(1,0)	(1,0)	(1,0)	(1,0)	(1,0)	(1,0)	(1,0)	(1,0)	(1,0)	(1,0)	(1,0)	
L1D -416>	(1,0)	(1,0)	(1,0)	(1,0)	(1,0)	(1,0)	(1,0)	(1,0)	(1,0)	(1,0)	(1,0)	(1,0)	(1,0)	(1,0)	(1,0)	(1,0)	
L1D -415>	(1,0)	(1,0)	(1,0)	(1,0)	(1,0)	(1,0)	(1,0)	(1,0)	(1,0)	(1,0)	(1,0)	(1,0)	(1,0)	(1,0)	(1,0)	(1,0)	
L1D -414>	(1,0)	(1,0)	(1,0)	(1,0)	(1,0)	(1,0)	(1,0)	(1,0)	(1,0)	(1,0)	(1,0)	(1,0)	(1,0)	(1,0)	(1,0)	(1,0)	
L1D -413>	(1,0)	(1,0)	(1,0)	(1,0)	(1,0)	(1,0)	(1,0)	(1,0)	(1,0)	(1,0)	(1,0)	(1,0)	(1,0)	(1,0)	(1,0)	(1,0)	
L1D -412>	(1,0)	(1,0)	(1,0)	(1,0)	(1,0)	(1,0)	(1,0)	(1,0)	(1,0)	(1,0)	(1,0)	(1,0)	(1,0)	(1,0)	(1,0)	(1,0)	
L1D -411>	(1,0)	(1,0)	(1,0)	(1,0)	(1,0)	(1,0)	(1,0)	(1,0)	(1,0)	(1,0)	(1,0)	(1,0)	(1,0)	(1,0)	(1,0)	(1,0)	
L1D -410>	(1,0)	(1,0)	(1,0)	(1,0)	(1,0)	(1,0)	(1,0)	(1,0)	(1,0)	(1,0)	(1,0)	(1,0)	(1,0)	(1,0)	(1,0)	(1,0)	
L1D -409>	(1,0)	(1,0)	(1,0)	(1,0)	(1,0)	(1,0)	(1,0)	(1,0)	(1,0)	(1,0)	(1,0)	(1,0)	(1,0)	(1,0)	(1,0)	(1,0)	
L1D -408>	(1,0)	(1,0)	(1,0)	(1,0)	(1,0)	(1,0)	(1,0)	(1,0)	(1,0)	(1,0)	(1,0)	(1,0)	(1,0)	(1,0)	(1,0)	(1,0)	
L1D -407>	(1,0)	(1,0)	(1,0)	(1,0)	(1,0)	(1,0)	(1,0)	(1,0)	(1,0)	(1,0)	(1,0)	(1,0)	(1,0)	(1,0)	(1,0)	(1,0)	
L1D -406>	(1,0)	(1,0)	(1,0)	(1,0)	(1,0)	(1,0)	(1,0)	(1,0)	(1,0)	(1,0)	(1,0)	(1,0)	(1,0)	(1,0)	(1,0)	(1,0)	
L1D -405>	(1,0)	(1,0)	(1,0)	(1,0)	(1,0)	(1,0)	(1,0)	(1,0)	(1,0)	(1,0)	(1,0)	(1,0)	(1,0)	(1,0)	(1,0)	(1,0)	
L1D -404>	(1,0)	(1,0)	(1,0)	(1,0)	(1,0)	(1,0)	(1,0)	(1,0)	(1,0)	(1,0)	(1,0)	(1,0)	(1,0)	(1,0)	(1,0)	(1,0)	
L1D -403>	(1,0)	(1,0)	(1,0)	(1,0)	(1,0)	(1,0)	(1,0)	(1,0)	(1,0)	(1,0)	(1,0)	(1,0)	(1,0)	(1,0)	(1,0)	(1,0)	
L1D -402>	(1,0)	(1,0)	(1,0)	(1,0)	(1,0)	(1,0)	(1,0)	(1,0)	(1,0)	(1,0)	(1,0)	(1,0)	(1,0)	(1,0)	(1,0)	(1,0)	
L1D -401>	(1,0)	(1,0)	(1,0)	(1,0)	(1,0)	(1,0)	(1,0)	(1,0)	(1,0)	(1,0)	(1,0)	(1,0)	(1,0)	(1,0)	(1,0)	(1,0)	
L1D -400>	(1,0)	(1,0)	(1,0)	(1,0)	(1,0)	(1,0)	(1,0)	(1,0)	(1,0)	(1,0)	(1,0)	(1,0)	(1,0)	(1,0)	(1,0)	(1,0)	
L1D -399>	(1,0)	(1,0)	(1,0)	(1,0)	(1,0)	(1,0)	(1,0)	(1,0)	(1,0)	(1,0)	(1,0)	(1,0)	(1,0)	(1,0)	(1,0)	(1,0)	
L1D -398>	(1,0)	(1,0)	(1,0)	(1,0)	(1,0)	(1,0)	(1,0)	(1,0)	(1,0)	(1,0)	(1,0)	(1,0)	(1,0)	(1,0)	(1,0)	(1,0)	
L1D -397>	(1,0)	(1,0)	(1,0)	(1,0)	(1,0)	(1,0)	(1,0)	(1,0)	(1,0)	(1,0)	(1,0)	(1,0)	(1,0)	(1,0)	(1,0)	(1,0)	
L1D -396>	(1,0)	(1,0)	(1,0)	(1,0)	(1,0)	(1,0)	(1,0)	(1,0)	(1,0)	(1,0)	(1,0)	(1,0)	(1,0)	(1,0)	(1,0)	(1,0)	
L1D -395>	(1,0)	(1,0)	(1,0)	(1,0)	(1,0)	(1,0)	(1,0)	(1,0)	(1,0)	(1,0)	(1,0)	(1,0)	(1,0)	(1,0)	(1,0)	(1,0)	
L1D -394>	(1,0)	(1,0)	(1,0)	(1,0)	(1,0)	(1,0)	(1,0)	(1,0)	(1,0)	(1,0)	(1,0)	(1,0)	(1,0)	(1,0)	(1,0)	(1,0)	
L1D -393>	(1,0)	(1,0)	(1,0)	(1,0)	(1,0)	(1,0)	(1,0)	(1,0)	(1,0)	(1,0)	(1,0)	(1,0)	(1,0)	(1,0)	(1,0)	(1,0)	
L1D -392>	(1,0)	(1,0)	(1,0)	(1,0)	(1,0)	(1,0)	(1,0)	(1,0)	(1,0)	(1,0)	(1,0)	(1,0)	(1,0)	(1,0)	(1,0)	(1,0)	
L1D -391>	(1,0)	(1,0)	(1,0)	(1,0)	(1,0)	(1,0)	(1,0)	(1,0)	(1,0)	(1,0)	(1,0)	(1,0)	(1,0)	(1,0)	(1,0)	(1,0)	
L1D -390>	(1,0)	(1,0)	(1,0)	(1,0)	(1,0)	(1,0)	(1,0)	(1,0)	(1,0)	(1,0)	(1,0)	(1,0)	(1,0)	(1,0)	(1,0)	(1,0)	
L1D -389>	(1,0)	(1,0)	(1,0)	(1,0)	(1,0)	(1,0)	(1,0)	(1,0)	(1,0)	(1,0)	(1,0)	(1,0)	(1,0)	(1,0)	(1,0)	(1,0)	
L1D -388>	(1,0)	(1,0)	(1,0)	(1,0)	(1,0)	(1,0)	(1,0)	(1,0)	(1,0)	(1,0)	(1,0)	(1,0)	(1,0)	(1,0)	(1,0)	(1,0)	
L1D -387>	(1,0)	(1,0)	(1,0)	(1,0)	(1,0)	(1,0)	(1,0)	(1,0)	(1,0)	(1,0)	(1,0)	(1,0)	(1,0)	(1,0)	(1,0)	(1,0)	
L1D -386>	(1,0)	(1,0)	(1,0)	(1,0)	(1,0)	(1,0)	(1,0)	(1,0)	(1,0)	(1,0)	(1,0)	(1,0)	(1,0)	(1,0)	(1,0)	(1,0)	
L1D -385>	(1,0)	(1,0)	(1,0)	(1,0)	(1,0)	(1,0)	(1,0)	(1,0)	(1,0)	(1,0)	(1,0)	(1,0)	(1,0)	(1,0)	(1,0)	(1,0)	
L1D -384>	(1,0)	(1,0)	(1,0)	(1,0)	(1,0)	(1,0)	(1,0)	(1,0)	(1,0)	(1,0)	(1,0)	(1,0)	(1,0)	(1,0)	(1,0)	(1,0)	
L1D -383>	(1,0)	(1,0)	(1,0)	(1,0)	(1,0)	(1,0)	(1,0)	(1,0)	(1,0)	(1,0)	(1,0)	(1,0)	(1,0)	(1,0)	(1,0)	(1,0)	
L1D -382>	(1,0)	(1,0)	(1,0)	(1,0)	(1,0)	(1,0)	(1,0)	(1,0)	(1,0)	(1,0)	(1,0)	(1,0)	(1,0)	(1,0)	(1,0)	(1,0)	
L1D -381>	(1,0)	(1,0)	(1,0)	(1,0)	(1,0)	(1,0)	(1,0)	(1,0)	(1,0)	(1,0)	(1,0)	(1,0)	(1,0)	(1,0)	(1,0)	(1,0)	
L1D -380>	(1,0)	(1,0)	(1,0)	(1,0)	(1,0)	(1,0)	(1,0)	(1,0)	(1,0)	(1,0)	(1,0)	(1,0)	(1,0)	(1,0)	(1,0)	(1,0)	
L1D -379>	(1,0)	(1,0)	(1,0)	(1,0)	(1,0)	(1,0)	(1,0)	(1,0)	(1,0)	(1,0)	(1,0)	(1,0)	(1,0)	(1,0)	(1,0)	(1,0)	
L1D -378>	(1,0)	(1,0)	(1,0)	(1,0)	(1,0)	(1,0)	(1,0)	(1,0)	(1,0)	(1,0)	(1,0)	(1,0)	(1,0)	(1,0)	(1,0)	(1,0)	
L1D -377>	(1,0)	(1,0)	(1,0)	(1,0)	(1,0)	(1,0)	(1,0)	(1,0)	(1,0)	(1,0)	(1,0)	(1,0)	(1,0)	(1,0)	(1,0)	(1,0)	
L1D -376>	(1,0)	(1,0)	(1,0)	(1,0)	(1,0)	(1,0)	(1,0)	(1,0)	(1,0)	(1,0)	(1,0)	(1,0)	(1,0)	(1,0)	(1,0)	(1,0)	
L1D -375>	(1,0)	(1,0)	(1,0)	(1,0)	(1,0)	(1,0)	(1,0)	(1,0)	(1,0)	(1,0)	(1,0)	(1,0)	(1,0)	(1,0)	(1,0)	(1,0)	
L1D -374>	(1,0)	(1,0)	(1,0)	(1,0)	(1,0)	(1,0)	(1,0)	(1,0)	(1,0)	(1,0)	(1,0)	(1,0)	(1,0)	(1,0)	(1,0)	(1,0)	
L1D -373>	(1,0)	(1,0)	(1,0)	(1,0)	(1,0)	(1,0)	(1,0)	(1,0)	(1,0)	(1,0)	(1,0)	(1,0)	(1,0)	(1,0)	(1,0)	(1,0)	
L1D -372>	(1,0)	(1,0)	(1,0)	(1,0)	(1,0)	(1,0)	(1,0)	(1,0)	(1,0)	(1,0)	(1,0)	(1,0)	(1,0)	(1,0)	(1,0)	(1,0)	
L1D -371>	(1,0)	(1,0)	(1,0)	(1,0)	(1,0)	(1,0)	(1,0)	(1,0)	(1,0)	(1,0)	(1,0)	(1,0)	(1,0)	(1,0)	(1,0)	(1,0)	
L1D -370>	(1,0)	(1,0)	(1,0)	(1,0)	(1,0)	(1,0)	(1,0)	(1,0)	(1,0)	(1,0)	(1,0)	(1,0)	(1,0)	(1,0)	(1,0)	(1,0)	
L1D -369>	(1,0)	(1,0)	(1,0)	(1,0)	(1,0)	(1,0)	(1,0)	(1,0)	(1,0)	(1,0)	(1,0)	(1,0)	(1,0)	(1,0)	(1,0)	(1,0)	
L1D -368>	(1,0)	(1,0)	(1,0)	(1,0)	(1,0)	(1,0)	(1,0)	(1,0)	(1,0)	(1,0)	(1,0)	(1,0)	(1,0)	(1,0)	(1,0)	(1,0)	
L1D -367>	(1,0)	(1,0)	(1,0)	(1,0)	(1,0)	(1,0)	(1,0)	(1,0)	(1,0)	(1,0)	(1,0)	(1,0)	(1,0)	(1,0)	(1,0)	(1,0)	
L1D -366>	(1,0)	(1,0)	(1,0)	(1,0)	(1,0)	(1,0)	(1,0)	(1,0)	(1,0)	(1,0)	(1,0)	(1,0)	(1,0)	(1,0)	(1,0)	(1,0)	
L1D -365>	(1,0)	(1,0)	(1,0)	(1,0)	(1,0)	(1,0)	(1,0)	(1,0)	(1,0)	(1,0)	(1,0)	(1,0)	(1,0)	(1,0)	(1,0)	(1,0)	
L1D -364>	(361,62)	(1,0)	(1,0)	(1,0)	(1,0)	(1,0)	(1,0)	(1,0)	(1,0)	(1,0)	(1,0)	(1,0)	(1,0)	(1,0)	(1,0)	(1,0)	
L1D -363>	(-1,6)	(360,6)	(1,0)	(1,0)	(1,0)	(1,0)	(1,0)	(1,0)	(1,0)	(1,0)	(1,0)	(1,0)	(1,0)	(1,0)	(1,0)	(1,0)	
L1D -362>	(1,0)	(1,0)	(1,0)	(1,0)	(1,0)	(1,0)	(1,0)	(1,0)	(1,0)	(1,0)	(1,0)	(1,0)	(1,0)	(1,0)	(1,0)	(1,0)	
L1D -361>	(1,1)	(358,3)	(1,0)	(1,0)	(1,0)	(1,0)	(1,0)	(1,0)	(1,0)	(1,0)	(1,0)	(1,0)	(1,0)	(1,0)	(1,0)	(1,0)	
L1D -360>	(357,2)	(364,53)	(361,43)	(1,6)	(1,0)	(1,0)	(1,0)	(1,0)	(1,0)	(1,0)	(1,0)	(1,0)	(1,0)	(1,0)	(1,0)	(1,0)	
L1D -359>	(363,3)	(1,0)	(1,0)	(1,0)	(1,0)	(1,0)	(1,0)	(1,0)	(1,0)	(1,0)	(1,0)	(1,0)	(1,0)	(1,0)	(1,0)	(1,0)	
L1D -358>	(1,0)	(1,0)	(1,0)	(1,0)	(1,0)	(1,0)	(1,0)	(1,0)	(1,0)	(1,0)	(1,0)	(1,0)	(1,0)	(1,0)	(1,0)	(1,0)	
L1D -357>	(361,49)	(358,39)	(1,109)	(364,48)	(1,0)	(1,0)	(1,0)	(1,0)	(1,0)	(1,0)	(1,0)	(1,0)	(1,0)	(1,0)	(1,0)	(1,0)	
L1D -356>	(1,4)	(-1,2)	(361,3)	(363,58)	(358,19)	(364,14)	(1,0)	(1,0)	(1,0)	(1,0)	(1,0)	(1,0)	(1,0)	(1,0)	(1,0)	(1,0)	
L1D -355>	(1,0)	(1,0)	(1,0)	(1,0)	(1,0)	(1,0)	(1,0)	(1,0)	(1,0)	(1,0)	(1,0)	(1,0)	(1,0)	(1,0)	(1,0)	(1,0)	
L1D -354>	(1,0)	(1,0)	(1,0)	(1,0)	(1,0)	(1,0)	(1,0)	(1,0)	(1,0)	(1,0)	(1,0)	(1,0)	(1,0)	(1,0)	(1,0)	(1,0)	
L1D -353>	(1,0)	(1,0)	(1,0)	(1,0)	(1,0)	(1,0)	(1,0)	(1,0)	(1,0)	(1,0)	(1,0)	(1,0)	(1,0)	(1,0)	(1,0)	(1,0)	
L1D -352>	(1,0)	(1,0)	(1,0)	(1,0)	(1,0)	(1,0)	(1,0)	(1,0)	(1,0)	(1,0)	(1,0)	(1,0)	(1,0)	(1,0)	(1,0)	(1,0)	
L1D -351>	(1,0)	(1,0)	(1,0)	(1,0)	(1,0)	(1,0)	(1,0)	(1,0)	(1,0)	(1,0)	(1,0)	(1,0)	(1,0)	(1,0)	(1,0)	(1,0)	
L1D -350>	(1,0)	(1,0)	(1,0)	(1,0)	(1,0)	(1,0)	(1,0)	(1,0)	(1,0)	(1,0)	(1,0)	(1,0)	(1,0)	(1,0)	(1,0)	(1,0)	
L1D -349>	(1,0)	(1,0)	(1,0)	(1,0)	(1,0)	(1,0)	(1,0)	(1,0)	(1,0)	(1,0)	(1,0)	(1,0)	(1,0)	(1,0)	(1,0)	(1,0)	
L1D -348>	(1,0)	(1,0)	(1,0)	(1,0)	(1,0)	(1,0)	(1,0)	(1,0)	(1,0)	(1,0)	(1,0)	(1,0)	(1,0)	(1,0)	(1,0)	(1,0)	
L1D -347>	(1,0)	(1,0)	(1,0)	(1,0)	(1,0)	(1,0)	(1,0)	(1,0)	(1,0)	(1,0)	(1,0)	(1,0)	(1,0)	(1,0)	(1,0)	(1,0)	
L1D -346>	(1,0)	(1,0)	(1,0)	(1,0)	(1,0)	(1,0)	(1,0)	(1,0)	(1,0)	(1,0)	(1,0)	(1,0)	(1,0)	(1,0)	(1,0)	(1,0)	
L1D -345>	(1,0)	(1,0)	(1,0)	(1,0)	(1,0)	(1,0)	(1,0)	(1,0)	(1,0)	(1,0)	(1,0)	(1,0)	(1,0)	(1,0)	(1,0)	(1,0)	
L1D -344>	(1,0)	(1,0)	(1,0)	(1,0)	(1,0)	(1,0)	(1,0)	(1,0)	(1,0)	(1,0)	(1,0)	(1,0)	(1,0)	(1,0)	(1,0)	(1,0)	
L1D -343>	(1,0)	(1,0)	(1,0)	(1,0)	(1,0)	(1,0)	(1,0)	(1,0)	(1,0)	(1,0)	(1,0)	(1,0)	(1,0)	(1,0)	(1,0)	(1,0)	
L1D -342>	(1,0)	(1,0)	(1,0)	(1,0)	(1,0)	(1,0)	(1,0)	(1,0)	(1,0)	(1,0)	(1,0)	(1,0)	(1,0)	(1,0)	(1,0)	(1,0)	
L1D -341>	(1,0)	(1,0)	(1,0)	(1,0)	(1,0)	(1,0)	(1,0)	(1,0)	(1,0)	(1,0)	(1,0)	(1,0)	(1,0)	(1,0)	(1,0)	(1,0)	
L1D -340>	(1,0)	(1,0)	(1,0)	(1,0)	(1,0)	(1,0)	(1,0)	(1,0)	(1,0)	(1,0)	(1,0)	(1,0)	(1,0)	(1,0)	(1,0)	(1,0)	
L1D -339>	(1,0)	(1,0)	(1,0)	(1,0)	(1,0)	(1,0)	(1,0)	(1,0)	(1,0)	(1,0)	(1,0)	(1,0)	(1,0)	(1,0)	(1,0)	(1,0)	
L1D -338>	(1,0)	(1,0)	(1,0)	(1,0)	(1,0)	(1,0)	(1,0)	(1,0)	(1,0)	(1,0)	(1,0)	(1,0)	(1,0)	(1,0)	(1,0)	(1,0)	
L1D -337>	(1,0)	(1,0)	(1,0)	(1,0)	(1,0)	(1,0)	(1,0)	(1,0)	(1,0)	(1,0)	(1,0)	(1,0)	(1,0)	(1,0)	(1,0)	(1,0)	
L1D -336>	(1,0)	(1,0)	(1,0)	(1,0)	(1,0)	(1,0)	(1,0)	(1,0)	(1,0)	(1,0)	(1,0)	(1,0)	(1,0)	(1,0)	(1,0)	(1,0)	
L1D -335>	(1,0)	(1,0)	(1,0)	(1,0)	(1,0)	(1,0)	(1,0)	(1,0)	(1,0)	(1,0)	(1,0)	(1,0)	(1,0)	(1,0)	(1,0)	(1,0)	
L1D -334>	(1,0)	(1,0)	(1,0)	(1,0)	(1,0)	(1,0)	(1,0)	(1,0)	(1,0)	(1,0)	(1,0)	(1,0)	(1,0)	(1,0)	(1,0)	(1,0)	
L1D -333>	(1,0)	(1,0)	(1,0)	(1,0)	(1,0)	(1,0)	(1,0)	(1,0)	(1,0)	(1,0)	(1,0)	(1,0)	(1,0)	(1,0)	(1,0)	(1,0)	
L1D -332>	(1,0)	(1,0)	(1,0)	(1,0)	(1,0)	(1,0)	(1,0)	(1,0)	(1,0)	(1,0)	(1,0)	(1,0)	(1,0)	(1,0)	(1,0)	(1,0)	
L1D -331>	(1,0)	(1,0)	(1,0)	(1,0)	(1,0)	(1,0)	(1,0)	(1,0)	(1,0)	(1,0)	(1,0)	(1,0)	(1,0)	(1,0)	(1,0)	(1,0)	
L1D -330>	(1,0)	(1,0)	(1,0)	(1,0)	(1,0)	(1,0)	(1,0)	(1,0)	(1,0)	(1,0)	(1,0)	(1,0)	(1,0)	(1,0)	(1,0)	(1,0)	
L1D -329>	(1,0)	(1,0)	(1,0)	(1,0)	(1,0)	(1,0)	(1,0)	(1,0)	(1,0)	(1,0)	(1,0)	(1,0)	(1,0)	(1,0)	(1,0)	(1,0)	
L1D -328>	(1,0)	(1,0)	(1,0)	(1,0)	(1,0)	(1,0)	(1,0)	(1,0)	(1,0)	(1,0)	(1,0)	(1,0)	(1,0)	(1,0)	(1,0)	(1,0)	
L1D -327>	(1,0)	(1,0)	(1,0)	(1,0)	(1,0)	(1,0)	(1,0)	(1,0)	(1,0)	(1,0)	(1,0)	(1,0)	(1,0)	(1,0)	(1,0)	(1,0)	
L1D -326>	(1,0)	(1,0)	(1,0)	(1,0)	(1,0)	(1,0)	(1,0)	(1,0)	(1,0)	(1,0)	(1,0)	(1,0)	(1,0)	(1,0)	(1,0)	(1,0)	
L1D -325>	(1,0)	(1,0)	(1,0)	(1,0)	(1,0)	(1,0)	(1,0)	(1,0)	(1,0)	(1,0)	(1,0)	(1,0)	(1,0)	(1,0)	(1,0)	(1,0)	
L1D -324>	(1,0)	(1,0)	(1,0)	(1,0)	(1,0)	(1,0)	(1,0)	(1,0)	(1,0)	(1,0)	(1,0)	(1,0)	(1,0)	(1,0)	(1,0)	(1,0)	
L1D -323>	(1,0)	(1,0)	(1,0)	(1,0)	(1,0)	(1,0)	(1,0)	(1,0)	(1,0)	(1,0)	(1,0)	(1,0)	(1,0)	(1,0)	(1,0)	(1,0)	
L1D -322>	(1,0)	(1,0)	(1,0)	(1,0)	(1,0)	(1,0)	(1,0)	(1,0)	(1,0)	(1,0)	(1,0)	(1,0)	(1,0)	(1,0)	(1,0)	(1,0)	
L1D -321>	(1,0)	(1,0)	(1,0)	(1,0)	(1,0)	(1,0)	(1,0)	(1,0)	(1,0)	(1,0)	(1,0)	(1,0)	(1,0)	(1,0)	(1,0)	(1,0)	
L1D -320>	(1,0)	(1,0)	(1,0)	(1,0)	(1,0)	(1,0)	(1,0)	(1,0)	(1,0)	(1,0)	(1,0)	(1,0)	(1,0)	(1,0)	(1,0)	(1,0)	
L1D -319>	(1,0)	(1,0)	(1,0)	(1,0)	(1,0)	(1,0)	(1,0)	(1,0)	(1,0)	(1,0)	(1,0)	(1,0)	(1,0)	(1,0)	(1,0)	(1,0)	
L1D -318>	(1,0)	(1,0)	(1,0)	(1,0)	(1,0)	(1,0)	(1,0)	(1,0)	(1,0)	(1,0)	(1,0)	(1,0)	(1,0)	(1,0)	(1,0)	(1,0)	
L1D -317>	(1,0)	(1,0)	(1,0)	(1,0)	(1,0)	(1,0)	(1,0)	(1,0)	(1,0)	(1,0)	(1,0)	(1,0)	(1,0)	(1,0)	(1,0)	(1,0)	
L1D -316>	(1,0)	(1,0)	(1,0)	(1,0)	(1,0)	(1,0)	(1,0)	(1,0)	(1,0)	(1,0)	(1,0)	(1,0)	(1,0)	(1,0)	(1,0)	(1,0)	
L1D -315>	(1,0)	(1,0)	(1,0)	(1,0)	(1,0)	(1,0)	(1,0)	(1,0)	(1,0)	(1,0)	(1,0)	(1,0)	(1,0)	(1,0)	(1,0)	(1,0)	
L1D -314>	(1,0)	(1,0)	(1,0)	(1,0)	(1,0)	(1,0)	(1,0)	(1,0)	(1,0)	(1,0)	(1,0)	(1,0)	(1,0)	(1,0)	(1,0)	(1,0)	
L1D -313>	(1,0)	(1,0)	(1,0)	(1,0)	(1,0)	(1,0)	(1,0)	(1,0)	(1,0)	(1,0)	(1,0)	(1,0)	(1,0)	(1,0)	(1,0)	(1,0)	
L1D -312>	(1,0)	(1,0)	(1,0)	(1,0)	(1,0)	(1,0)	(1,0)	(1,0)	(1,0)	(1,0)	(1,0)	(1,0)	(1,0)	(1,0)	(1,0)	(1,0)	
L1D -311>	(1,0)	(1,0)	(1,0)	(1,0)	(1,0)	(1,0)	(1,0)	(1,0)	(1,0)	(1,0)	(1,0)	(1,0)	(1,0)	(1,0)	(1,0)	(1,0)	
L1D -310>	(1,0)	(1,0)	(1,0)	(1,0)	(1,0)	(1,0)	(1,0)	(1,0)	(1,0)	(1,0)	(1,0)	(1,0)	(1,0)	(1,0)	(1,0)	(1,0)	
L1D -309>	(1,0)	(1,0)	(1,0)	(1,0)	(1,0)	(1,0)	(1,0)	(1,0)	(1,0)	(1,0)	(1,0)	(1,0)	(1,0)	(1,0)	(1,0)	(1,0)	
L1D -308>	(1,0)	(1,0)	(1,0)	(1,0)	(1,0)	(1,0)	(1,0)	(1,0)	(1,0)	(1,0)	(1,0)	(1,0)	(1,0)	(1,0)	(1,0)	(1,0)	
L1D -307>	(1,0)	(1,0)	(1,0)	(1,0)	(1,0)	(1,0)	(1,0)	(1,0)	(1,0)	(1,0)	(1,0)	(1,0)	(1,0)	(1,0)	(1,0)	(1,0)	
L1D -306>	(1,0)	(1,0)	(1,0)	(1,0)	(1,0)	(1,0)	(1,0)	(1,0)	(1,0)	(1,0)	(1,0)	(1,0)	(1,0)	(1,0)	(1,0)	(1,0)	
L1D -305>	(2,1)	(1,0)	(1,0)	(1,0)	(1,0)	(1,0)	(1,0)	(1,0)	(1,0)	(1,0)	(1,0)	(1,0)	(1,0)	(1,0)	(1,0)	(1,0)	
L1D -304>	(1,0)	(1,0)	(1,0)	(1,0)	(1,0)	(1,0)	(1,0)	(1,0)	(1,0)	(1,0)	(1,0)	(1,0)	(1,0)	(1,0)	(1,0)	(1,0)	
L1D -303>	(1,0)	(1,0)	(1,0)	(1,0)	(1,0)	(1,0)	(1,0)	(1,0)	(1,0)	(1,0)	(1,0)	(1,0)	(1,0)	(1,0)	(1,0)	(1,0)	
L1D -302>	(1,0)	(1,0)	(1,0)	(1,0)	(1,0)	(1,0)	(1,0)	(1,0)	(1,0)	(1,0)	(1,0)	(1,0)	(1,0)	(1,0)	(1,0)	(1,0)	
L1D -301>	(1,0)	(1,0)	(1,0)	(1,0)	(1,0)	(1,0)	(1,0)	(1,0)	(1,0)	(1,0)	(1,0)	(1,0)	(1,0)	(1,0)	(1,0)	(1,0)	
L1D -300>	(1,0)	(1,0)	(1,0)	(1,0)	(1,0)	(1,0)	(1,0)	(1,0)	(1,0)	(1,0)	(1,0)	(1,0)	(1,0)	(1,0)	(1,0)	(1,0)	
L1D -299>	(1,0)	(1,0)	(1,0)	(1,0)	(1,0)	(1,0)	(1,0)	(1,0)	(1,0)	(1,0)	(1,0)	(1,0)	(1,0)	(1,0)	(1,0)	(1,0)	
L1D -298>	(1,0)	(1,0)	(1,0)	(1,0)	(1,0)	(1,0)	(1,0)	(1,0)	(1,0)	(1,0)	(1,0)	(1,0)	(1,0)	(1,0)	(1,0)	(1,0)	
L1D -297>	(-1,31)	(1,0)	(1,0)	(1,0)	(1,0)	(1,0)	(1,0)	(1,0)	(1,0)	(1,0)	(1,0)	(1,0)	(1,0)	(1,0)	(1,0)	(1,0)	
L1D -296>	(34,13)	(292,30)	(293,5)	(-1,18)	(294,14)	(296,2)	(291,7)	(33,2)	(295,22)	(288,10)	(32,5)	(30,2)	(29,2)	(290,2)	(31,3)	(1,0)	
L1D -295>	(296,1)	(33,93)	(-1,38)	(288,19)	(32,31)	(289,20)	(31,13)	(294,18)	(293,31)	(287,36)	(291,15)	(292,33)	(34,9)	(25,18)	(295,25)	(290,2)	
L1D -294>	(32,80)	(295,1)	(31,11)	(291,6)	(34,4)	(29,13)	(-1,9)	(293,22)	(30,8)	(33,5)	(288,13)	(292,12)	(289,3)	(27,4)	(294,1)	(1,0)	
L1D -293>	(16,8)	(32,10)	(292,8)	(31,32)	(15,2)	(288,19)	(26,108)	(30,66)	(29,6)	(28,7)	(-1,36)	(33,40)	(293,8)	(34,5)	(289,7)	(287,1)	
L1D -292>	(290,4)	(30,15)	(295,12)	(293,8)	(28,17)	(294,2)	(292,3)	(31,57)	(33,35)	(289,35)	(27,35)	(32,19)	(29,13)	(291,14)	(296,1)	(-1,15)	
L1D -291>	(292,3)	(33,14)	(295,29)	(26,11)	(32,17)	(294,9)	(29,3)	(293,2)	(31,3)	(30,1)	(27,3)	(25,1)	(1,0)	(1,0)	(1,0)	(1,0)	
L1D -290>	(28,3)	(295,7)	(25,13)	(27,2)	(288,8)	(293,1)	(31,2)	(30,2)	(29,3)	(291,1)	(1,0)	(1,0)	(1,0)	(1,0)	(1,0)	(1,0)	
L1D -289>	(29,3)	(27,7)	(295,16)	(31,4)	(32,1)	(288,2)	(28,2)	(1,0)	(1,0)	(1,0)	(1,0)	(1,0)	(1,0)	(1,0)	(1,0)	(1,0)	
L1D -288>	(29,62)	(295,11)	(296,1)	(291,1)	(1,0)	(1,0)	(1,0)	(1,0)	(1,0)	(1,0)	(1,0)	(1,0)	(1,0)	(1,0)	(1,0)	(1,0)	
L1D -287>	(1,0)	(1,0)	(1,0)	(1,0)	(1,0)	(1,0)	(1,0)	(1,0)	(1,0)	(1,0)	(1,0)	(1,0)	(1,0)	(1,0)	(1,0)	(1,0)	
L1D -286>	(287,4)	(295,1)	(1,0)	(1,0)	(1,0)	(1,0)	(1,0)	(1,0)	(1,0)	(1,0)	(1,0)	(1,0)	(1,0)	(1,0)	(1,0)	(1,0)	
L1D -285>	(1,0)	(1,0)	(1,0)	(1,0)	(1,0)	(1,0)	(1,0)	(1,0)	(1,0)	(1,0)	(1,0)	(1,0)	(1,0)	(1,0)	(1,0)	(1,0)	
L1D -284>	(1,0)	(1,0)	(1,0)	(1,0)	(1,0)	(1,0)	(1,0)	(1,0)	(1,0)	(1,0)	(1,0)	(1,0)	(1,0)	(1,0)	(1,0)	(1,0)	
L1D -283>	(1,0)	(1,0)	(1,0)	(1,0)	(1,0)	(1,0)	(1,0)	(1,0)	(1,0)	(1,0)	(1,0)	(1,0)	(1,0)	(1,0)	(1,0)	(1,0)	
L1D -282>	(20,3)	(1,0)	(1,0)	(1,0)	(1,0)	(1,0)	(1,0)	(1,0)	(1,0)	(1,0)	(1,0)	(1,0)	(1,0)	(1,0)	(1,0)	(1,0)	
L1D -281>	(1,0)	(1,0)	(1,0)	(1,0)	(1,0)	(1,0)	(1,0)	(1,0)	(1,0)	(1,0)	(1,0)	(1,0)	(1,0)	(1,0)	(1,0)	(1,0)	
L1D -280>	(1,0)	(1,0)	(1,0)	(1,0)	(1,0)	(1,0)	(1,0)	(1,0)	(1,0)	(1,0)	(1,0)	(1,0)	(1,0)	(1,0)	(1,0)	(1,0)	
L1D -279>	(280,3)	(15,4)	(18,2)	(-15,1)	(1,0)	(1,0)	(1,0)	(1,0)	(1,0)	(1,0)	(1,0)	(1,0)	(1,0)	(1,0)	(1,0)	(1,0)	
L1D -278>	(-17,0)	(15,0)	(279,0)	(-14,0)	(16,80)	(1,0)	(1,0)	(1,0)	(1,0)	(1,0)	(1,0)	(1,0)	(1,0)	(1,0)	(1,0)	(1,0)	
L1D -277>	(1,0)	(1,0)	(1,0)	(1,0)	(1,0)	(1,0)	(1,0)	(1,0)	(1,0)	(1,0)	(1,0)	(1,0)	(1,0)	(1,0)	(1,0)	(1,0)	
L1D -276>	(1,0)	(1,0)	(1,0)	(1,0)	(1,0)	(1,0)	(1,0)	(1,0)	(1,0)	(1,0)	(1,0)	(1,0)	(1,0)	(1,0)	(1,0)	(1,0)	
L1D -275>	(1,0)	(1,0)	(1,0)	(1,0)	(1,0)	(1,0)	(1,0)	(1,0)	(1,0)	(1,0)	(1,0)	(1,0)	(1,0)	(1,0)	(1,0)	(1,0)	
L1D -274>	(1,0)	(1,0)	(1,0)	(1,0)	(1,0)	(1,0)	(1,0)	(1,0)	(1,0)	(1,0)	(1,0)	(1,0)	(1,0)	(1,0)	(1,0)	(1,0)	
L1D -273>	(2,2)	(1,0)	(1,0)	(1,0)	(1,0)	(1,0)	(1,0)	(1,0)	(1,0)	(1,0)	(1,0)	(1,0)	(1,0)	(1,0)	(1,0)	(1,0)	
L1D -272>	(10,120)	(263,1)	(1,0)	(1,0)	(1,0)	(1,0)	(1,0)	(1,0)	(1,0)	(1,0)	(1,0)	(1,0)	(1,0)	(1,0)	(1,0)	(1,0)	
L1D -271>	(5,3)	(9,2)	(1,3)	(8,7)	(269,2)	(1,0)	(1,0)	(1,0)	(1,0)	(1,0)	(1,0)	(1,0)	(1,0)	(1,0)	(1,0)	(1,0)	
L1D -270>	(263,86)	(267,2)	(7,1)	(-210,2)	(269,1)	(1,0)	(1,0)	(1,0)	(1,0)	(1,0)	(1,0)	(1,0)	(1,0)	(1,0)	(1,0)	(1,0)	
L1D -269>	(7,3)	(-26,4)	(263,9)	(268,1)	(6,1)	(1,0)	(1,0)	(1,0)	(1,0)	(1,0)	(1,0)	(1,0)	(1,0)	(1,0)	(1,0)	(1,0)	
L1D -268>	(269,0)	(2,1)	(1,5)	(6,116)	(261,1)	(5,3)	(7,0)	(4,21)	(263,10)	(-27,3)	(9,1)	(1,0)	(1,0)	(1,0)	(1,0)	(1,0)	
L1D -267>	(5,56)	(269,1)	(268,3)	(266,3)	(1,6)	(263,15)	(264,26)	(-25,73)	(3,17)	(-28,45)	(-26,5)	(-29,15)	(265,13)	(8,2)	(4,16)	(2,5)	
L1D -266>	(8,16)	(267,5)	(259,0)	(4,19)	(263,11)	(-25,1)	(1,5)	(-28,2)	(268,4)	(2,66)	(5,12)	(-29,6)	(0,2)	(265,2)	(264,7)	(262,6)	
L1D -265>	(263,3)	(266,4)	(3,10)	(264,8)	(267,3)	(-27,4)	(265,8)	(1,70)	(0,1)	(269,2)	(2,8)	(268,64)	(4,9)	(-29,3)	(262,7)	(5,3)	
L1D -264>	(265,65)	(266,16)	(1,35)	(2,92)	(260,19)	(261,17)	(263,38)	(-30,21)	(259,1)	(4,46)	(-32,29)	(262,44)	(268,16)	(-2,8)	(5,35)	(-31,47)	
L1D -263>	(264,61)	(1,30)	(262,87)	(265,38)	(-15,7)	(2,7)	(266,14)	(255,42)	(261,103)	(-1,42)	(260,69)	(-33,35)	(-31,1)	(-32,48)	(5,17)	(-3,21)	
L1D -262>	(-33,35)	(263,41)	(260,24)	(265,16)	(259,34)	(261,32)	(264,87)	(266,20)	(-1,18)	(267,49)	(258,9)	(4,1)	(-31,20)	(1,29)	(262,8)	(257,8)	
L1D -261>	(-32,26)	(262,1)	(-1,7)	(-17,3)	(258,13)	(-31,17)	(-33,73)	(264,10)	(267,6)	(266,41)	(-34,9)	(260,6)	(265,14)	(-5,12)	(-2,10)	(1,4)	
L1D -260>	(256,14)	(261,19)	(-2,39)	(5,24)	(265,13)	(-4,8)	(-32,34)	(-28,39)	(258,18)	(-33,39)	(260,14)	(264,15)	(-3,13)	(-6,39)	(4,1)	(255,73)	
L1D -259>	(261,68)	(262,8)	(-3,6)	(257,39)	(-1,21)	(-33,23)	(-34,14)	(260,11)	(266,16)	(-4,3)	(258,25)	(264,5)	(-5,22)	(-6,13)	(259,38)	(265,10)	
L1D -258>	(-4,21)	(261,11)	(-29,1)	(-7,10)	(-3,16)	(-33,4)	(-2,19)	(-1,14)	(-34,7)	(259,15)	(260,11)	(263,3)	(265,2)	(-8,9)	(264,3)	(262,10)	
L1D -257>	(261,44)	(262,1)	(-5,9)	(260,8)	(264,3)	(-4,4)	(-29,3)	(-2,1)	(256,5)	(258,3)	(265,1)	(1,0)	(1,0)	(1,0)	(1,0)	(1,0)	
L1D -256>	(-6,20)	(261,10)	(-5,10)	(262,4)	(263,1)	(1,0)	(1,0)	(1,0)	(1,0)	(1,0)	(1,0)	(1,0)	(1,0)	(1,0)	(1,0)	(1,0)	
L1D -255>	(261,44)	(-7,12)	(262,1)	(1,0)	(1,0)	(1,0)	(1,0)	(1,0)	(1,0)	(1,0)	(1,0)	(1,0)	(1,0)	(1,0)	(1,0)	(1,0)	
L1D -254>	(255,3)	(-8,1)	(1,0)	(1,0)	(1,0)	(1,0)	(1,0)	(1,0)	(1,0)	(1,0)	(1,0)	(1,0)	(1,0)	(1,0)	(1,0)	(1,0)	
L1D -253>	(255,8)	(254,5)	(256,1)	(1,0)	(1,0)	(1,0)	(1,0)	(1,0)	(1,0)	(1,0)	(1,0)	(1,0)	(1,0)	(1,0)	(1,0)	(1,0)	
L1D -252>	(1,0)	(1,0)	(1,0)	(1,0)	(1,0)	(1,0)	(1,0)	(1,0)	(1,0)	(1,0)	(1,0)	(1,0)	(1,0)	(1,0)	(1,0)	(1,0)	
L1D -251>	(1,0)	(1,0)	(1,0)	(1,0)	(1,0)	(1,0)	(1,0)	(1,0)	(1,0)	(1,0)	(1,0)	(1,0)	(1,0)	(1,0)	(1,0)	(1,0)	
L1D -250>	(1,0)	(1,0)	(1,0)	(1,0)	(1,0)	(1,0)	(1,0)	(1,0)	(1,0)	(1,0)	(1,0)	(1,0)	(1,0)	(1,0)	(1,0)	(1,0)	
L1D -249>	(1,0)	(1,0)	(1,0)	(1,0)	(1,0)	(1,0)	(1,0)	(1,0)	(1,0)	(1,0)	(1,0)	(1,0)	(1,0)	(1,0)	(1,0)	(1,0)	
L1D -248>	(1,0)	(1,0)	(1,0)	(1,0)	(1,0)	(1,0)	(1,0)	(1,0)	(1,0)	(1,0)	(1,0)	(1,0)	(1,0)	(1,0)	(1,0)	(1,0)	
L1D -247>	(1,0)	(1,0)	(1,0)	(1,0)	(1,0)	(1,0)	(1,0)	(1,0)	(1,0)	(1,0)	(1,0)	(1,0)	(1,0)	(1,0)	(1,0)	(1,0)	
L1D -246>	(1,0)	(1,0)	(1,0)	(1,0)	(1,0)	(1,0)	(1,0)	(1,0)	(1,0)	(1,0)	(1,0)	(1,0)	(1,0)	(1,0)	(1,0)	(1,0)	
L1D -245>	(1,0)	(1,0)	(1,0)	(1,0)	(1,0)	(1,0)	(1,0)	(1,0)	(1,0)	(1,0)	(1,0)	(1,0)	(1,0)	(1,0)	(1,0)	(1,0)	
L1D -244>	(1,0)	(1,0)	(1,0)	(1,0)	(1,0)	(1,0)	(1,0)	(1,0)	(1,0)	(1,0)	(1,0)	(1,0)	(1,0)	(1,0)	(1,0)	(1,0)	
L1D -243>	(1,0)	(1,0)	(1,0)	(1,0)	(1,0)	(1,0)	(1,0)	(1,0)	(1,0)	(1,0)	(1,0)	(1,0)	(1,0)	(1,0)	(1,0)	(1,0)	
L1D -242>	(1,0)	(1,0)	(1,0)	(1,0)	(1,0)	(1,0)	(1,0)	(1,0)	(1,0)	(1,0)	(1,0)	(1,0)	(1,0)	(1,0)	(1,0)	(1,0)	
L1D -241>	(1,0)	(1,0)	(1,0)	(1,0)	(1,0)	(1,0)	(1,0)	(1,0)	(1,0)	(1,0)	(1,0)	(1,0)	(1,0)	(1,0)	(1,0)	(1,0)	
L1D -240>	(1,0)	(1,0)	(1,0)	(1,0)	(1,0)	(1,0)	(1,0)	(1,0)	(1,0)	(1,0)	(1,0)	(1,0)	(1,0)	(1,0)	(1,0)	(1,0)	
L1D -239>	(1,0)	(1,0)	(1,0)	(1,0)	(1,0)	(1,0)	(1,0)	(1,0)	(1,0)	(1,0)	(1,0)	(1,0)	(1,0)	(1,0)	(1,0)	(1,0)	
L1D -238>	(1,0)	(1,0)	(1,0)	(1,0)	(1,0)	(1,0)	(1,0)	(1,0)	(1,0)	(1,0)	(1,0)	(1,0)	(1,0)	(1,0)	(1,0)	(1,0)	
L1D -237>	(1,0)	(1,0)	(1,0)	(1,0)	(1,0)	(1,0)	(1,0)	(1,0)	(1,0)	(1,0)	(1,0)	(1,0)	(1,0)	(1,0)	(1,0)	(1,0)	
L1D -236>	(1,0)	(1,0)	(1,0)	(1,0)	(1,0)	(1,0)	(1,0)	(1,0)	(1,0)	(1,0)	(1,0)	(1,0)	(1,0)	(1,0)	(1,0)	(1,0)	
L1D -235>	(1,0)	(1,0)	(1,0)	(1,0)	(1,0)	(1,0)	(1,0)	(1,0)	(1,0)	(1,0)	(1,0)	(1,0)	(1,0)	(1,0)	(1,0)	(1,0)	
L1D -234>	(1,0)	(1,0)	(1,0)	(1,0)	(1,0)	(1,0)	(1,0)	(1,0)	(1,0)	(1,0)	(1,0)	(1,0)	(1,0)	(1,0)	(1,0)	(1,0)	
L1D -233>	(1,0)	(1,0)	(1,0)	(1,0)	(1,0)	(1,0)	(1,0)	(1,0)	(1,0)	(1,0)	(1,0)	(1,0)	(1,0)	(1,0)	(1,0)	(1,0)	
L1D -232>	(1,0)	(1,0)	(1,0)	(1,0)	(1,0)	(1,0)	(1,0)	(1,0)	(1,0)	(1,0)	(1,0)	(1,0)	(1,0)	(1,0)	(1,0)	(1,0)	
L1D -231>	(1,0)	(1,0)	(1,0)	(1,0)	(1,0)	(1,0)	(1,0)	(1,0)	(1,0)	(1,0)	(1,0)	(1,0)	(1,0)	(1,0)	(1,0)	(1,0)	
L1D -230>	(1,0)	(1,0)	(1,0)	(1,0)	(1,0)	(1,0)	(1,0)	(1,0)	(1,0)	(1,0)	(1,0)	(1,0)	(1,0)	(1,0)	(1,0)	(1,0)	
L1D -229>	(1,0)	(1,0)	(1,0)	(1,0)	(1,0)	(1,0)	(1,0)	(1,0)	(1,0)	(1,0)	(1,0)	(1,0)	(1,0)	(1,0)	(1,0)	(1,0)	
L1D -228>	(1,0)	(1,0)	(1,0)	(1,0)	(1,0)	(1,0)	(1,0)	(1,0)	(1,0)	(1,0)	(1,0)	(1,0)	(1,0)	(1,0)	(1,0)	(1,0)	
L1D -227>	(1,0)	(1,0)	(1,0)	(1,0)	(1,0)	(1,0)	(1,0)	(1,0)	(1,0)	(1,0)	(1,0)	(1,0)	(1,0)	(1,0)	(1,0)	(1,0)	
L1D -226>	(1,0)	(1,0)	(1,0)	(1,0)	(1,0)	(1,0)	(1,0)	(1,0)	(1,0)	(1,0)	(1,0)	(1,0)	(1,0)	(1,0)	(1,0)	(1,0)	
L1D -225>	(1,0)	(1,0)	(1,0)	(1,0)	(1,0)	(1,0)	(1,0)	(1,0)	(1,0)	(1,0)	(1,0)	(1,0)	(1,0)	(1,0)	(1,0)	(1,0)	
L1D -224>	(166,7)	(1,0)	(1,0)	(1,0)	(1,0)	(1,0)	(1,0)	(1,0)	(1,0)	(1,0)	(1,0)	(1,0)	(1,0)	(1,0)	(1,0)	(1,0)	
L1D -223>	(1,0)	(1,0)	(1,0)	(1,0)	(1,0)	(1,0)	(1,0)	(1,0)	(1,0)	(1,0)	(1,0)	(1,0)	(1,0)	(1,0)	(1,0)	(1,0)	
L1D -222>	(1,0)	(1,0)	(1,0)	(1,0)	(1,0)	(1,0)	(1,0)	(1,0)	(1,0)	(1,0)	(1,0)	(1,0)	(1,0)	(1,0)	(1,0)	(1,0)	
L1D -221>	(1,0)	(1,0)	(1,0)	(1,0)	(1,0)	(1,0)	(1,0)	(1,0)	(1,0)	(1,0)	(1,0)	(1,0)	(1,0)	(1,0)	(1,0)	(1,0)	
L1D -220>	(1,0)	(1,0)	(1,0)	(1,0)	(1,0)	(1,0)	(1,0)	(1,0)	(1,0)	(1,0)	(1,0)	(1,0)	(1,0)	(1,0)	(1,0)	(1,0)	
L1D -219>	(1,0)	(1,0)	(1,0)	(1,0)	(1,0)	(1,0)	(1,0)	(1,0)	(1,0)	(1,0)	(1,0)	(1,0)	(1,0)	(1,0)	(1,0)	(1,0)	
L1D -218>	(1,7)	(1,0)	(1,0)	(1,0)	(1,0)	(1,0)	(1,0)	(1,0)	(1,0)	(1,0)	(1,0)	(1,0)	(1,0)	(1,0)	(1,0)	(1,0)	
L1D -217>	(1,0)	(1,0)	(1,0)	(1,0)	(1,0)	(1,0)	(1,0)	(1,0)	(1,0)	(1,0)	(1,0)	(1,0)	(1,0)	(1,0)	(1,0)	(1,0)	
L1D -216>	(1,0)	(1,0)	(1,0)	(1,0)	(1,0)	(1,0)	(1,0)	(1,0)	(1,0)	(1,0)	(1,0)	(1,0)	(1,0)	(1,0)	(1,0)	(1,0)	
L1D -215>	(1,3)	(2,2)	(4,1)	(1,0)	(1,0)	(1,0)	(1,0)	(1,0)	(1,0)	(1,0)	(1,0)	(1,0)	(1,0)	(1,0)	(1,0)	(1,0)	
L1D -214>	(1,1)	(2,3)	(3,2)	(1,0)	(1,0)	(1,0)	(1,0)	(1,0)	(1,0)	(1,0)	(1,0)	(1,0)	(1,0)	(1,0)	(1,0)	(1,0)	
L1D -213>	(6,2)	(1,0)	(1,0)	(1,0)	(1,0)	(1,0)	(1,0)	(1,0)	(1,0)	(1,0)	(1,0)	(1,0)	(1,0)	(1,0)	(1,0)	(1,0)	
L1D -212>	(2,65)	(6,1)	(1,0)	(1,0)	(1,0)	(1,0)	(1,0)	(1,0)	(1,0)	(1,0)	(1,0)	(1,0)	(1,0)	(1,0)	(1,0)	(1,0)	
L1D -211>	(1,10)	(1,0)	(1,0)	(1,0)	(1,0)	(1,0)	(1,0)	(1,0)	(1,0)	(1,0)	(1,0)	(1,0)	(1,0)	(1,0)	(1,0)	(1,0)	
L1D -210>	(116,20)	(207,33)	(206,25)	(112,9)	(113,24)	(6,11)	(-1,5)	(205,21)	(204,6)	(208,3)	(1,2)	(209,8)	(114,3)	(115,5)	(203,21)	(111,1)	
L1D -209>	(115,31)	(-1,119)	(208,46)	(206,11)	(205,54)	(207,11)	(114,41)	(113,20)	(109,6)	(111,5)	(204,2)	(112,9)	(210,2)	(203,1)	(1,0)	(1,0)	
L1D -208>	(114,72)	(207,29)	(112,7)	(-1,33)	(111,19)	(209,2)	(205,41)	(113,62)	(203,13)	(204,4)	(202,20)	(201,8)	(110,3)	(206,4)	(210,1)	(115,2)	
L1D -207>	(113,39)	(112,74)	(111,35)	(115,12)	(114,38)	(209,11)	(110,23)	(205,6)	(203,12)	(208,7)	(210,3)	(108,6)	(202,7)	(207,1)	(14,1)	(-1,2)	
L1D -206>	(115,4)	(114,68)	(112,26)	(209,3)	(204,22)	(111,42)	(203,57)	(109,57)	(113,38)	(12,23)	(-1,79)	(205,13)	(110,13)	(206,3)	(210,1)	(208,1)	
L1D -205>	(111,8)	(113,5)	(207,1)	(115,1)	(209,6)	(202,11)	(203,14)	(108,85)	(204,2)	(112,19)	(205,26)	(110,47)	(-1,32)	(206,21)	(114,17)	(208,6)	
L1D -204>	(110,34)	(205,4)	(108,11)	(203,77)	(109,16)	(111,32)	(210,1)	(115,3)	(114,5)	(206,16)	(112,16)	(32,1)	(209,10)	(202,0)	(-1,8)	(201,2)	
L1D -203>	(109,16)	(116,1)	(112,2)	(205,0)	(9,0)	(201,95)	(111,2)	(110,50)	(115,4)	(-1,2)	(204,0)	(209,0)	(1,0)	(1,0)	(1,0)	(1,0)	
L1D -202>	(110,2)	(108,117)	(111,19)	(115,21)	(200,2)	(198,4)	(203,4)	(-1,4)	(207,0)	(205,3)	(113,0)	(201,0)	(204,0)	(209,0)	(109,0)	(195,0)	
L1D -201>	(107,57)	(110,3)	(109,39)	(108,49)	(-1,35)	(203,88)	(197,3)	(210,26)	(206,2)	(105,5)	(209,1)	(115,5)	(199,4)	(198,2)	(196,2)	(200,3)	
L1D -200>	(108,82)	(199,57)	(-1,6)	(201,1)	(203,1)	(2,69)	(105,17)	(197,13)	(196,2)	(198,2)	(107,10)	(106,4)	(110,1)	(200,2)	(1,0)	(1,0)	
L1D -199>	(109,1)	(199,2)	(107,5)	(197,66)	(2,0)	(106,4)	(108,6)	(200,4)	(105,1)	(-1,2)	(1,0)	(1,0)	(1,0)	(1,0)	(1,0)	(1,0)	
L1D -198>	(197,97)	(196,1)	(106,1)	(9,18)	(107,1)	(104,1)	(103,1)	(105,1)	(1,0)	(201,1)	(1,0)	(1,0)	(1,0)	(1,0)	(1,0)	(1,0)	
L1D -197>	(1,65)	(197,2)	(51,4)	(195,2)	(196,0)	(-1,4)	(108,0)	(1,0)	(1,0)	(1,0)	(1,0)	(1,0)	(1,0)	(1,0)	(1,0)	(1,0)	
L1D -196>	(-1,1)	(51,4)	(1,89)	(198,0)	(-14,0)	(199,0)	(195,0)	(53,4)	(9,2)	(52,2)	(105,6)	(108,2)	(1,0)	(1,0)	(1,0)	(1,0)	
L1D -195>	(9,1)	(103,17)	(193,85)	(21,13)	(19,4)	(51,3)	(2,1)	(52,0)	(1,0)	(1,0)	(1,0)	(1,0)	(1,0)	(1,0)	(1,0)	(1,0)	
L1D -194>	(199,0)	(100,71)	(-12,1)	(19,1)	(-10,0)	(99,0)	(-18,1)	(-16,0)	(-14,0)	(-9,0)	(-15,21)	(102,0)	(21,1)	(198,0)	(1,0)	(1,0)	
L1D -193>	(198,11)	(2,4)	(21,7)	(19,13)	(196,1)	(199,3)	(1,0)	(1,0)	(1,0)	(1,0)	(1,0)	(1,0)	(1,0)	(1,0)	(1,0)	(1,0)	
L1D -192>	(197,97)	(198,4)	(199,2)	(1,0)	(1,0)	(1,0)	(1,0)	(1,0)	(1,0)	(1,0)	(1,0)	(1,0)	(1,0)	(1,0)	(1,0)	(1,0)	
L1D -191>	(1,0)	(1,0)	(1,0)	(1,0)	(1,0)	(1,0)	(1,0)	(1,0)	(1,0)	(1,0)	(1,0)	(1,0)	(1,0)	(1,0)	(1,0)	(1,0)	
L1D -190>	(197,10)	(198,7)	(1,0)	(1,0)	(1,0)	(1,0)	(1,0)	(1,0)	(1,0)	(1,0)	(1,0)	(1,0)	(1,0)	(1,0)	(1,0)	(1,0)	
L1D -189>	(97,3)	(-8,4)	(1,0)	(1,0)	(1,0)	(1,0)	(1,0)	(1,0)	(1,0)	(1,0)	(1,0)	(1,0)	(1,0)	(1,0)	(1,0)	(1,0)	
L1D -188>	(1,10)	(3,4)	(5,17)	(1,0)	(1,0)	(1,0)	(1,0)	(1,0)	(1,0)	(1,0)	(1,0)	(1,0)	(1,0)	(1,0)	(1,0)	(1,0)	
L1D -187>	(1,6)	(188,1)	(5,5)	(1,0)	(1,0)	(1,0)	(1,0)	(1,0)	(1,0)	(1,0)	(1,0)	(1,0)	(1,0)	(1,0)	(1,0)	(1,0)	
L1D -186>	(5,0)	(-16,0)	(-8,0)	(95,0)	(-15,0)	(93,0)	(2,0)	(-10,0)	(3,0)	(94,71)	(1,0)	(1,0)	(1,0)	(1,0)	(1,0)	(1,0)	
L1D -185>	(93,3)	(-8,1)	(1,0)	(1,0)	(1,0)	(1,0)	(1,0)	(1,0)	(1,0)	(1,0)	(1,0)	(1,0)	(1,0)	(1,0)	(1,0)	(1,0)	
L1D -184>	(2,1)	(5,2)	(3,1)	(1,0)	(1,0)	(1,0)	(1,0)	(1,0)	(1,0)	(1,0)	(1,0)	(1,0)	(1,0)	(1,0)	(1,0)	(1,0)	
L1D -183>	(1,10)	(1,0)	(1,0)	(1,0)	(1,0)	(1,0)	(1,0)	(1,0)	(1,0)	(1,0)	(1,0)	(1,0)	(1,0)	(1,0)	(1,0)	(1,0)	
L1D -182>	(1,0)	(1,0)	(1,0)	(1,0)	(1,0)	(1,0)	(1,0)	(1,0)	(1,0)	(1,0)	(1,0)	(1,0)	(1,0)	(1,0)	(1,0)	(1,0)	
L1D -181>	(1,0)	(1,0)	(1,0)	(1,0)	(1,0)	(1,0)	(1,0)	(1,0)	(1,0)	(1,0)	(1,0)	(1,0)	(1,0)	(1,0)	(1,0)	(1,0)	
L1D -180>	(1,0)	(1,0)	(1,0)	(1,0)	(1,0)	(1,0)	(1,0)	(1,0)	(1,0)	(1,0)	(1,0)	(1,0)	(1,0)	(1,0)	(1,0)	(1,0)	
L1D -179>	(180,11)	(-8,2)	(1,0)	(1,0)	(1,0)	(1,0)	(1,0)	(1,0)	(1,0)	(1,0)	(1,0)	(1,0)	(1,0)	(1,0)	(1,0)	(1,0)	
L1D -178>	(177,3)	(98,3)	(1,0)	(1,0)	(1,0)	(1,0)	(1,0)	(1,0)	(1,0)	(1,0)	(1,0)	(1,0)	(1,0)	(1,0)	(1,0)	(1,0)	
L1D -177>	(1,0)	(1,0)	(1,0)	(1,0)	(1,0)	(1,0)	(1,0)	(1,0)	(1,0)	(1,0)	(1,0)	(1,0)	(1,0)	(1,0)	(1,0)	(1,0)	
L1D -176>	(1,5)	(8,7)	(6,2)	(-17,3)	(2,1)	(1,0)	(1,0)	(1,0)	(1,0)	(1,0)	(1,0)	(1,0)	(1,0)	(1,0)	(1,0)	(1,0)	
L1D -175>	(2,20)	(176,1)	(8,1)	(1,0)	(1,0)	(1,0)	(1,0)	(1,0)	(1,0)	(1,0)	(1,0)	(1,0)	(1,0)	(1,0)	(1,0)	(1,0)	
L1D -174>	(80,2)	(2,33)	(4,3)	(1,1)	(8,4)	(82,4)	(175,1)	(6,5)	(-36,1)	(1,0)	(1,0)	(1,0)	(1,0)	(1,0)	(1,0)	(1,0)	
L1D -173>	(-36,3)	(1,0)	(1,0)	(1,0)	(1,0)	(1,0)	(1,0)	(1,0)	(1,0)	(1,0)	(1,0)	(1,0)	(1,0)	(1,0)	(1,0)	(1,0)	
L1D -172>	(6,5)	(80,6)	(175,1)	(-32,1)	(1,0)	(1,0)	(1,0)	(1,0)	(1,0)	(1,0)	(1,0)	(1,0)	(1,0)	(1,0)	(1,0)	(1,0)	
L1D -171>	(1,0)	(1,0)	(1,0)	(1,0)	(1,0)	(1,0)	(1,0)	(1,0)	(1,0)	(1,0)	(1,0)	(1,0)	(1,0)	(1,0)	(1,0)	(1,0)	
L1D -170>	(79,3)	(167,1)	(1,0)	(1,0)	(1,0)	(1,0)	(1,0)	(1,0)	(1,0)	(1,0)	(1,0)	(1,0)	(1,0)	(1,0)	(1,0)	(1,0)	
L1D -169>	(1,0)	(1,0)	(1,0)	(1,0)	(1,0)	(1,0)	(1,0)	(1,0)	(1,0)	(1,0)	(1,0)	(1,0)	(1,0)	(1,0)	(1,0)	(1,0)	
L1D -168>	(1,0)	(1,0)	(1,0)	(1,0)	(1,0)	(1,0)	(1,0)	(1,0)	(1,0)	(1,0)	(1,0)	(1,0)	(1,0)	(1,0)	(1,0)	(1,0)	
L1D -167>	(30,17)	(1,0)	(1,0)	(1,0)	(1,0)	(1,0)	(1,0)	(1,0)	(1,0)	(1,0)	(1,0)	(1,0)	(1,0)	(1,0)	(1,0)	(1,0)	
L1D -166>	(154,11)	(206,98)	(1,0)	(1,0)	(1,0)	(1,0)	(1,0)	(1,0)	(1,0)	(1,0)	(1,0)	(1,0)	(1,0)	(1,0)	(1,0)	(1,0)	
L1D -165>	(28,4)	(30,11)	(1,0)	(1,0)	(1,0)	(1,0)	(1,0)	(1,0)	(1,0)	(1,0)	(1,0)	(1,0)	(1,0)	(1,0)	(1,0)	(1,0)	
L1D -164>	(-1,16)	(111,1)	(1,0)	(1,0)	(1,0)	(1,0)	(1,0)	(1,0)	(1,0)	(1,0)	(1,0)	(1,0)	(1,0)	(1,0)	(1,0)	(1,0)	
L1D -163>	(224,20)	(-1,2)	(30,63)	(26,2)	(114,1)	(1,0)	(1,0)	(1,0)	(1,0)	(1,0)	(1,0)	(1,0)	(1,0)	(1,0)	(1,0)	(1,0)	
L1D -162>	(224,65)	(1,0)	(1,0)	(1,0)	(1,0)	(1,0)	(1,0)	(1,0)	(1,0)	(1,0)	(1,0)	(1,0)	(1,0)	(1,0)	(1,0)	(1,0)	
L1D -161>	(-1,14)	(26,5)	(165,1)	(30,33)	(111,4)	(1,0)	(1,0)	(1,0)	(1,0)	(1,0)	(1,0)	(1,0)	(1,0)	(1,0)	(1,0)	(1,0)	
L1D -160>	(162,4)	(-1,7)	(161,3)	(1,0)	(1,0)	(1,0)	(1,0)	(1,0)	(1,0)	(1,0)	(1,0)	(1,0)	(1,0)	(1,0)	(1,0)	(1,0)	
L1D -159>	(26,112)	(-1,15)	(111,0)	(1,0)	(1,0)	(1,0)	(1,0)	(1,0)	(1,0)	(1,0)	(1,0)	(1,0)	(1,0)	(1,0)	(1,0)	(1,0)	
L1D -158>	(160,2)	(30,35)	(-1,79)	(1,0)	(1,0)	(1,0)	(1,0)	(1,0)	(1,0)	(1,0)	(1,0)	(1,0)	(1,0)	(1,0)	(1,0)	(1,0)	
L1D -157>	(26,18)	(24,28)	(107,2)	(1,0)	(1,0)	(1,0)	(1,0)	(1,0)	(1,0)	(1,0)	(1,0)	(1,0)	(1,0)	(1,0)	(1,0)	(1,0)	
L1D -156>	(-1,52)	(1,0)	(1,0)	(1,0)	(1,0)	(1,0)	(1,0)	(1,0)	(1,0)	(1,0)	(1,0)	(1,0)	(1,0)	(1,0)	(1,0)	(1,0)	
L1D -155>	(22,31)	(-1,4)	(1,0)	(1,0)	(1,0)	(1,0)	(1,0)	(1,0)	(1,0)	(1,0)	(1,0)	(1,0)	(1,0)	(1,0)	(1,0)	(1,0)	
L1D -154>	(206,38)	(26,6)	(-1,10)	(1,0)	(1,0)	(1,0)	(1,0)	(1,0)	(1,0)	(1,0)	(1,0)	(1,0)	(1,0)	(1,0)	(1,0)	(1,0)	
L1D -153>	(1,0)	(1,0)	(1,0)	(1,0)	(1,0)	(1,0)	(1,0)	(1,0)	(1,0)	(1,0)	(1,0)	(1,0)	(1,0)	(1,0)	(1,0)	(1,0)	
L1D -152>	(1,0)	(1,0)	(1,0)	(1,0)	(1,0)	(1,0)	(1,0)	(1,0)	(1,0)	(1,0)	(1,0)	(1,0)	(1,0)	(1,0)	(1,0)	(1,0)	
L1D -151>	(100,3)	(1,10)	(1,0)	(1,0)	(1,0)	(1,0)	(1,0)	(1,0)	(1,0)	(1,0)	(1,0)	(1,0)	(1,0)	(1,0)	(1,0)	(1,0)	
L1D -150>	(100,1)	(1,7)	(1,0)	(1,0)	(1,0)	(1,0)	(1,0)	(1,0)	(1,0)	(1,0)	(1,0)	(1,0)	(1,0)	(1,0)	(1,0)	(1,0)	
L1D -149>	(1,8)	(1,0)	(1,0)	(1,0)	(1,0)	(1,0)	(1,0)	(1,0)	(1,0)	(1,0)	(1,0)	(1,0)	(1,0)	(1,0)	(1,0)	(1,0)	
L1D -148>	(1,7)	(1,0)	(1,0)	(1,0)	(1,0)	(1,0)	(1,0)	(1,0)	(1,0)	(1,0)	(1,0)	(1,0)	(1,0)	(1,0)	(1,0)	(1,0)	
L1D -147>	(2,13)	(149,4)	(1,24)	(100,1)	(1,0)	(1,0)	(1,0)	(1,0)	(1,0)	(1,0)	(1,0)	(1,0)	(1,0)	(1,0)	(1,0)	(1,0)	
L1D -146>	(148,1)	(1,72)	(147,6)	(1,0)	(1,0)	(1,0)	(1,0)	(1,0)	(1,0)	(1,0)	(1,0)	(1,0)	(1,0)	(1,0)	(1,0)	(1,0)	
L1D -145>	(1,64)	(3,1)	(2,7)	(146,7)	(147,8)	(97,2)	(1,0)	(1,0)	(1,0)	(1,0)	(1,0)	(1,0)	(1,0)	(1,0)	(1,0)	(1,0)	
L1D -144>	(12,111)	(1,61)	(0,59)	(145,5)	(147,7)	(146,8)	(1,0)	(1,0)	(1,0)	(1,0)	(1,0)	(1,0)	(1,0)	(1,0)	(1,0)	(1,0)	
L1D -143>	(1,67)	(144,2)	(-16,5)	(147,5)	(98,4)	(146,1)	(95,3)	(94,3)	(2,2)	(1,0)	(1,0)	(1,0)	(1,0)	(1,0)	(1,0)	(1,0)	
L1D -142>	(59,14)	(1,20)	(-2,9)	(143,6)	(144,1)	(-1,1)	(146,22)	(147,10)	(103,7)	(-18,7)	(1,0)	(1,0)	(1,0)	(1,0)	(1,0)	(1,0)	
L1D -141>	(1,125)	(58,5)	(102,0)	(142,0)	(2,73)	(106,5)	(1,0)	(1,0)	(1,0)	(1,0)	(1,0)	(1,0)	(1,0)	(1,0)	(1,0)	(1,0)	
L1D -140>	(141,7)	(172,8)	(1,97)	(106,14)	(-18,2)	(1,0)	(1,0)	(1,0)	(1,0)	(1,0)	(1,0)	(1,0)	(1,0)	(1,0)	(1,0)	(1,0)	
L1D -139>	(54,0)	(140,0)	(135,12)	(1,65)	(172,1)	(137,1)	(1,0)	(1,0)	(1,0)	(1,0)	(1,0)	(1,0)	(1,0)	(1,0)	(1,0)	(1,0)	
L1D -138>	(1,81)	(139,2)	(140,1)	(97,3)	(136,0)	(135,3)	(172,96)	(134,56)	(141,98)	(137,33)	(55,4)	(143,1)	(1,0)	(1,0)	(1,0)	(1,0)	
L1D -137>	(30,1)	(0,20)	(2,0)	(1,23)	(135,26)	(143,0)	(-10,0)	(138,14)	(136,3)	(9,2)	(139,0)	(172,40)	(54,75)	(134,21)	(141,0)	(68,1)	
L1D -136>	(1,73)	(137,11)	(138,18)	(135,0)	(100,37)	(136,6)	(134,8)	(1,0)	(1,0)	(1,0)	(1,0)	(1,0)	(1,0)	(1,0)	(1,0)	(1,0)	
L1D -135>	(138,64)	(137,22)	(136,12)	(1,69)	(100,27)	(-10,0)	(172,13)	(84,0)	(139,19)	(132,2)	(1,0)	(1,0)	(1,0)	(1,0)	(1,0)	(1,0)	
L1D -134>	(135,9)	(1,17)	(137,106)	(100,67)	(136,35)	(131,27)	(133,43)	(1,0)	(1,0)	(1,0)	(1,0)	(1,0)	(1,0)	(1,0)	(1,0)	(1,0)	
L1D -133>	(135,78)	(1,54)	(134,2)	(99,2)	(-22,1)	(100,124)	(98,0)	(139,20)	(131,77)	(97,14)	(138,24)	(136,16)	(-10,0)	(85,0)	(1,0)	(1,0)	
L1D -132>	(133,87)	(98,33)	(-12,7)	(88,0)	(134,57)	(92,64)	(91,13)	(93,4)	(40,4)	(97,4)	(94,4)	(1,0)	(1,0)	(1,0)	(1,0)	(1,0)	
L1D -131>	(132,111)	(84,6)	(83,10)	(133,4)	(1,0)	(1,0)	(1,0)	(1,0)	(1,0)	(1,0)	(1,0)	(1,0)	(1,0)	(1,0)	(1,0)	(1,0)	
L1D -130>	(84,11)	(80,5)	(1,0)	(1,0)	(1,0)	(1,0)	(1,0)	(1,0)	(1,0)	(1,0)	(1,0)	(1,0)	(1,0)	(1,0)	(1,0)	(1,0)	
L1D -129>	(84,8)	(83,14)	(1,0)	(1,0)	(1,0)	(1,0)	(1,0)	(1,0)	(1,0)	(1,0)	(1,0)	(1,0)	(1,0)	(1,0)	(1,0)	(1,0)	
L1D -128>	(-30,1)	(21,3)	(-10,30)	(-9,24)	(-1,5)	(84,8)	(1,0)	(1,0)	(1,0)	(1,0)	(1,0)	(1,0)	(1,0)	(1,0)	(1,0)	(1,0)	
L1D -127>	(-10,10)	(1,0)	(1,0)	(1,0)	(1,0)	(1,0)	(1,0)	(1,0)	(1,0)	(1,0)	(1,0)	(1,0)	(1,0)	(1,0)	(1,0)	(1,0)	
L1D -126>	(1,0)	(1,0)	(1,0)	(1,0)	(1,0)	(1,0)	(1,0)	(1,0)	(1,0)	(1,0)	(1,0)	(1,0)	(1,0)	(1,0)	(1,0)	(1,0)	
L1D -125>	(-12,17)	(1,0)	(1,0)	(1,0)	(1,0)	(1,0)	(1,0)	(1,0)	(1,0)	(1,0)	(1,0)	(1,0)	(1,0)	(1,0)	(1,0)	(1,0)	
L1D -124>	(68,10)	(66,9)	(64,3)	(119,4)	(123,4)	(120,11)	(122,18)	(-1,4)	(67,1)	(63,1)	(65,1)	(1,0)	(1,0)	(1,0)	(1,0)	(1,0)	
L1D -123>	(67,83)	(119,21)	(-1,64)	(115,23)	(59,7)	(117,15)	(65,5)	(122,9)	(66,10)	(116,13)	(30,10)	(118,4)	(68,5)	(64,22)	(120,9)	(124,1)	
L1D -122>	(66,78)	(121,16)	(64,7)	(-1,62)	(119,55)	(67,34)	(65,18)	(120,12)	(116,6)	(17,3)	(68,1)	(1,0)	(1,0)	(1,0)	(1,0)	(1,0)	
L1D -121>	(120,2)	(124,0)	(65,12)	(123,3)	(116,68)	(67,4)	(63,3)	(64,32)	(66,3)	(-1,9)	(117,6)	(118,3)	(119,5)	(121,1)	(62,0)	(1,0)	
L1D -120>	(64,11)	(118,8)	(62,3)	(119,7)	(65,17)	(117,24)	(66,3)	(61,1)	(1,0)	(1,0)	(1,0)	(1,0)	(1,0)	(1,0)	(1,0)	(1,0)	
L1D -119>	(122,1)	(124,9)	(116,4)	(123,3)	(66,10)	(1,0)	(1,0)	(1,0)	(1,0)	(1,0)	(1,0)	(1,0)	(1,0)	(1,0)	(1,0)	(1,0)	
L1D -118>	(76,41)	(62,25)	(121,1)	(71,1)	(114,36)	(115,5)	(117,5)	(110,2)	(-1,2)	(63,8)	(112,2)	(72,3)	(113,13)	(75,18)	(122,3)	(116,3)	
L1D -117>	(75,22)	(-1,18)	(67,2)	(76,1)	(110,115)	(116,3)	(71,5)	(74,24)	(114,7)	(113,17)	(72,5)	(73,4)	(111,1)	(69,1)	(115,4)	(117,5)	
L1D -116>	(74,99)	(209,26)	(115,25)	(76,6)	(208,1)	(-1,33)	(16,5)	(69,12)	(114,11)	(109,15)	(113,27)	(73,21)	(71,17)	(203,29)	(67,70)	(112,35)	
L1D -115>	(73,70)	(208,32)	(205,18)	(206,33)	(68,51)	(113,19)	(209,7)	(207,16)	(-1,124)	(114,75)	(75,33)	(109,1)	(111,29)	(69,22)	(72,69)	(202,14)	
L1D -114>	(72,55)	(207,39)	(206,23)	(-1,88)	(203,14)	(205,27)	(209,5)	(71,1)	(36,12)	(70,4)	(202,6)	(69,15)	(74,46)	(67,2)	(204,18)	(111,29)	
L1D -113>	(-1,44)	(71,38)	(108,6)	(208,50)	(202,47)	(206,38)	(209,55)	(115,10)	(205,40)	(111,1)	(112,19)	(116,7)	(207,99)	(70,46)	(204,36)	(73,99)	
L1D -112>	(208,23)	(26,45)	(27,48)	(23,20)	(-1,98)	(70,25)	(18,11)	(36,71)	(114,8)	(113,4)	(20,54)	(25,1)	(115,6)	(108,8)	(207,4)	(110,45)	
L1D -111>	(25,24)	(26,34)	(-1,75)	(109,18)	(110,53)	(27,91)	(23,21)	(24,40)	(11,10)	(206,15)	(205,1)	(22,13)	(20,41)	(67,8)	(108,10)	(202,12)	
L1D -110>	(109,36)	(206,6)	(20,21)	(-1,117)	(25,33)	(23,40)	(201,9)	(24,29)	(202,45)	(44,1)	(158,23)	(108,91)	(110,4)	(27,8)	(68,7)	(205,5)	
L1D -109>	(205,43)	(24,15)	(106,11)	(19,13)	(25,40)	(109,1)	(27,3)	(107,8)	(20,40)	(-1,109)	(108,32)	(23,15)	(22,8)	(29,90)	(21,10)	(26,6)	
L1D -108>	(107,30)	(199,15)	(158,43)	(109,17)	(26,11)	(110,8)	(-1,91)	(197,1)	(19,13)	(21,15)	(106,27)	(23,72)	(108,13)	(25,15)	(27,103)	(103,46)	
L1D -107>	(108,17)	(109,18)	(21,13)	(-1,65)	(20,3)	(26,51)	(23,24)	(199,1)	(202,3)	(25,5)	(19,14)	(27,20)	(102,3)	(24,39)	(112,7)	(22,10)	
L1D -106>	(50,53)	(23,24)	(19,6)	(54,15)	(199,5)	(108,19)	(201,1)	(24,21)	(26,40)	(109,37)	(-17,76)	(-1,15)	(27,5)	(107,21)	(21,3)	(1,90)	
L1D -105>	(52,6)	(22,76)	(2,5)	(23,20)	(102,6)	(106,11)	(109,7)	(105,32)	(195,2)	(107,20)	(28,3)	(153,23)	(-1,31)	(11,2)	(27,33)	(54,73)	
L1D -104>	(105,7)	(10,12)	(44,3)	(21,38)	(103,29)	(197,4)	(106,35)	(109,1)	(107,12)	(2,2)	(104,49)	(-1,21)	(24,18)	(22,63)	(102,87)	(201,12)	
L1D -103>	(20,2)	(1,7)	(104,5)	(110,0)	(196,65)	(2,2)	(21,15)	(105,17)	(24,35)	(106,3)	(27,9)	(107,12)	(198,23)	(109,23)	(22,9)	(202,17)	
L1D -102>	(19,2)	(103,127)	(1,2)	(104,4)	(99,17)	(101,4)	(109,4)	(27,8)	(8,5)	(58,1)	(107,10)	(51,27)	(7,1)	(106,18)	(95,3)	(20,5)	
L1D -101>	(196,0)	(19,3)	(104,0)	(100,0)	(1,39)	(57,0)	(7,1)	(-16,3)	(51,9)	(-108,1)	(106,2)	(99,1)	(109,2)	(52,10)	(2,65)	(21,9)	
L1D -100>	(-14,11)	(1,125)	(58,114)	(-12,10)	(-16,6)	(56,7)	(-11,19)	(104,2)	(-17,83)	(191,43)	(102,3)	(19,13)	(105,3)	(95,1)	(21,8)	(-15,76)	
L1D -99>	(132,6)	(1,87)	(19,1)	(135,0)	(-17,11)	(7,0)	(99,1)	(95,0)	(93,0)	(2,5)	(100,0)	(98,1)	(143,1)	(97,2)	(-18,0)	(-16,0)	
L1D -98>	(-112,5)	(4,19)	(-107,3)	(1,79)	(-16,2)	(97,87)	(91,1)	(95,2)	(89,4)	(-110,2)	(96,10)	(100,0)	(-111,0)	(146,1)	(94,67)	(-17,5)	
L1D -97>	(0,94)	(-109,54)	(1,6)	(96,20)	(95,17)	(5,1)	(90,21)	(3,6)	(-110,21)	(94,25)	(92,3)	(4,4)	(-112,6)	(-76,11)	(93,10)	(-113,6)	
L1D -96>	(95,72)	(89,27)	(-112,1)	(1,37)	(0,69)	(93,48)	(91,3)	(98,22)	(96,3)	(2,2)	(101,16)	(92,23)	(94,10)	(51,31)	(-110,9)	(-113,7)	
L1D -95>	(-2,9)	(94,22)	(12,1)	(92,15)	(140,23)	(2,5)	(1,71)	(93,41)	(95,15)	(-114,11)	(98,2)	(96,4)	(-113,2)	(-108,6)	(90,6)	(141,4)	
L1D -94>	(95,59)	(1,33)	(93,56)	(94,86)	(97,49)	(92,60)	(96,58)	(-108,1)	(99,33)	(90,46)	(98,11)	(-1,53)	(91,28)	(-115,10)	(-113,7)	(3,2)	
L1D -93>	(-102,14)	(1,112)	(-115,6)	(2,5)	(94,47)	(98,9)	(90,26)	(3,47)	(-110,31)	(-19,64)	(97,16)	(-109,17)	(92,1)	(91,23)	(95,10)	(84,4)	
L1D -92>	(94,26)	(91,103)	(92,36)	(90,24)	(1,9)	(-94,1)	(93,8)	(84,4)	(99,29)	(85,15)	(95,32)	(96,28)	(89,7)	(-1,33)	(-10,31)	(-110,28)	
L1D -91>	(1,110)	(92,18)	(84,32)	(93,37)	(-107,1)	(7,23)	(140,6)	(-115,5)	(95,17)	(96,121)	(-109,7)	(4,8)	(89,37)	(94,64)	(-108,8)	(-3,20)	
L1D -90>	(91,61)	(140,46)	(84,80)	(88,37)	(93,15)	(94,9)	(6,6)	(2,8)	(-104,13)	(-3,1)	(-22,11)	(129,13)	(-116,3)	(85,4)	(92,45)	(1,2)	
L1D -89>	(90,111)	(2,11)	(84,67)	(4,17)	(-1,111)	(6,1)	(-19,40)	(1,15)	(88,5)	(5,21)	(-22,27)	(85,21)	(-3,84)	(94,24)	(-18,28)	(91,21)	
L1D -88>	(84,73)	(85,21)	(-3,1)	(3,3)	(-2,3)	(2,2)	(5,7)	(87,8)	(-1,16)	(-23,4)	(4,3)	(-4,6)	(89,3)	(-22,3)	(83,2)	(1,1)	
L1D -87>	(84,68)	(4,17)	(86,14)	(-20,6)	(2,6)	(93,23)	(-2,3)	(3,9)	(87,5)	(85,18)	(-22,10)	(83,7)	(-4,5)	(91,9)	(48,26)	(1,1)	
L1D -86>	(-22,1)	(84,96)	(85,24)	(-24,22)	(90,9)	(-1,43)	(4,11)	(-3,19)	(-5,9)	(2,12)	(-4,9)	(83,15)	(-26,33)	(-2,9)	(-25,13)	(5,12)	
L1D -85>	(84,122)	(-3,1)	(1,42)	(-26,20)	(81,14)	(-25,8)	(-1,7)	(-4,3)	(86,5)	(82,15)	(-5,6)	(88,3)	(94,3)	(-27,4)	(83,17)	(-6,6)	
L1D -84>	(84,97)	(83,33)	(82,25)	(-3,5)	(-28,18)	(-1,65)	(-4,9)	(-25,16)	(-2,19)	(92,1)	(3,35)	(1,8)	(-27,53)	(-26,24)	(81,5)	(11,53)	
L1D -83>	(82,74)	(89,4)	(84,8)	(-60,5)	(2,2)	(93,7)	(-24,0)	(1,0)	(44,2)	(-1,3)	(4,1)	(-27,2)	(90,1)	(80,1)	(91,1)	(-2,1)	
L1D -82>	(84,121)	(82,16)	(-2,33)	(1,11)	(-1,28)	(83,20)	(-3,5)	(-25,7)	(-26,8)	(-27,14)	(5,13)	(89,8)	(-4,1)	(85,6)	(88,8)	(4,17)	
L1D -81>	(88,15)	(84,89)	(-4,5)	(-2,12)	(85,7)	(82,4)	(-3,7)	(-26,11)	(-24,24)	(-6,3)	(-5,12)	(2,1)	(81,4)	(5,8)	(83,9)	(-28,8)	
L1D -80>	(-1,52)	(84,99)	(-5,24)	(83,86)	(-3,37)	(81,42)	(0,1)	(82,69)	(-27,110)	(-28,103)	(2,33)	(-9,81)	(-4,111)	(-6,50)	(4,14)	(80,15)	
L1D -79>	(84,89)	(88,67)	(87,1)	(4,62)	(-4,39)	(80,13)	(-6,33)	(5,44)	(-27,37)	(82,32)	(-1,17)	(-3,6)	(81,11)	(-28,80)	(83,6)	(-5,7)	
L1D -78>	(84,65)	(79,1)	(-5,14)	(2,2)	(-28,7)	(4,13)	(85,2)	(83,3)	(-4,6)	(82,7)	(0,2)	(-1,8)	(87,1)	(81,7)	(6,2)	(38,0)	
L1D -77>	(84,108)	(0,3)	(-28,1)	(-6,2)	(-1,1)	(113,1)	(85,4)	(-4,1)	(1,0)	(1,0)	(1,0)	(1,0)	(1,0)	(1,0)	(1,0)	(1,0)	
L1D -76>	(84,85)	(4,19)	(117,29)	(113,3)	(-7,8)	(-37,78)	(-36,8)	(-9,1)	(116,17)	(-30,2)	(-3,22)	(18,4)	(114,10)	(-1,16)	(110,16)	(70,2)	
L1D -75>	(72,9)	(115,18)	(112,19)	(116,24)	(38,1)	(114,25)	(113,8)	(84,57)	(78,106)	(71,5)	(-1,31)	(73,5)	(110,6)	(74,15)	(-3,7)	(117,4)	
L1D -74>	(-1,80)	(68,1)	(117,12)	(115,51)	(73,30)	(113,70)	(110,25)	(-6,117)	(112,18)	(109,15)	(38,28)	(116,17)	(114,32)	(70,29)	(72,25)	(111,16)	
L1D -73>	(70,25)	(71,34)	(72,40)	(82,5)	(-2,74)	(-1,110)	(114,38)	(112,16)	(110,21)	(113,42)	(116,16)	(117,17)	(111,36)	(115,19)	(69,1)	(109,7)	
L1D -72>	(113,110)	(116,16)	(-1,82)	(74,7)	(69,31)	(73,18)	(36,1)	(112,16)	(68,8)	(115,18)	(71,42)	(111,47)	(75,11)	(38,49)	(70,20)	(114,70)	
L1D -71>	(73,65)	(70,14)	(112,26)	(116,113)	(111,106)	(69,25)	(72,45)	(108,7)	(-1,76)	(109,26)	(117,26)	(68,2)	(75,9)	(114,99)	(110,36)	(115,36)	
L1D -70>	(111,22)	(73,30)	(69,18)	(-1,67)	(116,17)	(110,10)	(109,98)	(108,10)	(72,27)	(13,29)	(113,23)	(112,1)	(114,36)	(71,13)	(115,54)	(36,19)	
L1D -69>	(112,84)	(115,14)	(-1,57)	(68,5)	(110,14)	(67,11)	(117,17)	(109,21)	(35,4)	(72,20)	(70,6)	(116,15)	(107,107)	(113,1)	(114,33)	(71,6)	
L1D -68>	(109,9)	(112,24)	(111,31)	(-1,127)	(114,10)	(61,73)	(137,1)	(69,6)	(72,87)	(122,28)	(120,6)	(121,7)	(70,15)	(115,6)	(123,9)	(108,14)	
L1D -67>	(68,20)	(110,42)	(118,30)	(122,41)	(-1,94)	(109,62)	(1,101)	(70,17)	(108,11)	(121,82)	(33,20)	(64,1)	(119,43)	(69,38)	(66,74)	(74,121)	
L1D -66>	(67,10)	(109,54)	(-1,88)	(30,50)	(1,105)	(119,30)	(121,27)	(116,20)	(115,1)	(123,10)	(68,14)	(117,13)	(65,8)	(112,62)	(63,24)	(32,34)	
L1D -65>	(117,1)	(123,2)	(-1,10)	(121,2)	(119,4)	(67,9)	(115,7)	(1,93)	(120,1)	(69,1)	(116,0)	(112,64)	(14,1)	(13,1)	(118,0)	(109,0)	
L1D -64>	(122,2)	(65,3)	(63,8)	(123,12)	(-42,1)	(1,49)	(67,5)	(124,5)	(119,6)	(117,1)	(121,4)	(30,4)	(8,5)	(61,2)	(120,1)	(57,115)	
L1D -63>	(14,1)	(1,112)	(65,55)	(120,106)	(64,10)	(116,12)	(63,11)	(68,5)	(117,9)	(94,5)	(13,3)	(122,98)	(119,16)	(123,60)	(57,6)	(66,65)	
L1D -62>	(119,16)	(122,26)	(6,3)	(60,2)	(54,1)	(63,7)	(64,18)	(123,6)	(121,37)	(120,56)	(57,13)	(66,12)	(65,19)	(67,20)	(1,4)	(13,4)	
L1D -61>	(2,9)	(118,90)	(62,6)	(5,2)	(63,1)	(58,1)	(122,6)	(121,8)	(94,1)	(67,20)	(123,9)	(65,7)	(119,9)	(66,3)	(64,5)	(120,1)	
L1D -60>	(142,107)	(61,0)	(4,1)	(58,1)	(118,0)	(2,0)	(66,3)	(117,2)	(121,0)	(65,6)	(103,4)	(-63,3)	(64,1)	(3,0)	(16,0)	(59,3)	
L1D -59>	(2,3)	(61,4)	(1,37)	(10,6)	(60,34)	(-14,5)	(-16,34)	(141,9)	(3,3)	(57,14)	(64,31)	(-18,25)	(117,19)	(54,1)	(102,21)	(63,11)	
L1D -58>	(123,85)	(63,21)	(-5,2)	(101,5)	(58,10)	(2,13)	(57,8)	(-12,6)	(52,3)	(59,118)	(1,69)	(-17,1)	(56,30)	(54,8)	(62,3)	(-16,1)	
L1D -57>	(1,70)	(-65,1)	(-13,4)	(-3,1)	(55,3)	(54,4)	(0,1)	(58,3)	(-17,19)	(-16,3)	(-18,1)	(-19,21)	(101,6)	(100,3)	(59,1)	(-66,1)	
L1D -56>	(138,124)	(57,102)	(-65,12)	(55,30)	(52,22)	(58,115)	(54,53)	(56,31)	(61,92)	(3,1)	(63,12)	(50,10)	(51,11)	(59,30)	(-67,27)	(53,32)	
L1D -55>	(58,22)	(19,3)	(1,22)	(18,6)	(53,27)	(188,7)	(56,32)	(-68,5)	(15,1)	(54,5)	(57,40)	(111,2)	(-67,65)	(-64,1)	(52,41)	(60,39)	
L1D -54>	(1,80)	(57,2)	(2,2)	(-2,18)	(52,5)	(55,1)	(-1,5)	(-67,26)	(61,2)	(-66,19)	(-36,2)	(59,6)	(53,4)	(49,7)	(3,1)	(-4,1)	
L1D -53>	(1,106)	(97,5)	(56,3)	(55,34)	(42,0)	(54,9)	(-2,1)	(-66,1)	(-50,1)	(50,0)	(52,1)	(-3,10)	(-67,4)	(2,4)	(57,11)	(53,7)	
L1D -52>	(1,3)	(52,16)	(137,21)	(-5,4)	(53,1)	(56,45)	(144,20)	(50,1)	(-4,2)	(55,5)	(96,70)	(54,0)	(-66,1)	(-63,16)	(10,48)	(51,86)	
L1D -51>	(16,1)	(-112,3)	(1,49)	(94,6)	(-93,5)	(2,14)	(12,49)	(52,1)	(-50,68)	(-1,1)	(-94,2)	(41,1)	(9,3)	(-13,1)	(-5,33)	(42,12)	
L1D -50>	(1,124)	(46,13)	(44,10)	(3,2)	(57,1)	(-110,1)	(49,3)	(-6,1)	(43,14)	(8,1)	(-16,3)	(-19,1)	(-50,11)	(-92,4)	(51,1)	(45,6)	
L1D -49>	(1,10)	(3,1)	(43,4)	(4,1)	(5,0)	(-18,4)	(-1,2)	(9,0)	(47,1)	(-19,16)	(-50,29)	(6,67)	(-93,7)	(-56,1)	(7,0)	(-68,2)	
L1D -48>	(-18,6)	(49,7)	(6,24)	(1,16)	(-68,1)	(-57,11)	(47,6)	(2,4)	(-92,29)	(41,73)	(43,18)	(4,69)	(-70,16)	(-1,28)	(-2,21)	(5,4)	
L1D -47>	(1,4)	(5,70)	(-83,1)	(43,15)	(6,1)	(-65,1)	(120,2)	(-18,5)	(9,13)	(-60,8)	(-93,5)	(2,6)	(-71,4)	(-69,1)	(44,6)	(45,4)	
L1D -46>	(4,71)	(43,37)	(47,12)	(48,7)	(-1,83)	(-68,1)	(1,12)	(44,18)	(-101,5)	(-69,11)	(45,9)	(51,20)	(-72,6)	(-71,24)	(40,8)	(2,21)	
L1D -45>	(2,94)	(44,12)	(-67,6)	(-2,17)	(48,40)	(42,2)	(49,10)	(3,14)	(4,11)	(-18,8)	(-70,2)	(43,110)	(-73,1)	(-1,3)	(50,65)	(5,71)	
L1D -44>	(44,87)	(-2,1)	(41,1)	(6,0)	(46,0)	(-72,1)	(-70,0)	(-71,0)	(-14,1)	(45,1)	(-5,0)	(-73,0)	(2,1)	(3,2)	(0,0)	(43,0)	
L1D -43>	(45,7)	(44,9)	(42,12)	(-69,23)	(1,39)	(41,35)	(3,63)	(43,9)	(116,1)	(-1,14)	(36,12)	(-72,8)	(39,17)	(-4,18)	(40,19)	(38,116)	
L1D -42>	(41,108)	(42,16)	(39,50)	(40,92)	(2,89)	(43,69)	(38,30)	(44,20)	(3,32)	(45,29)	(-74,1)	(47,34)	(-1,31)	(-73,22)	(37,67)	(46,6)	
L1D -41>	(39,18)	(114,51)	(1,14)	(44,1)	(-1,51)	(3,21)	(43,12)	(208,77)	(-72,15)	(2,17)	(40,63)	(-68,13)	(42,15)	(-73,24)	(-74,24)	(45,22)	
L1D -40>	(-7,12)	(2,10)	(-2,42)	(42,67)	(-72,1)	(1,18)	(38,3)	(41,14)	(45,59)	(-1,36)	(-74,27)	(5,63)	(39,24)	(-68,83)	(6,70)	(44,124)	
L1D -39>	(-70,20)	(4,14)	(-102,5)	(206,43)	(116,46)	(2,65)	(-2,1)	(1,14)	(-3,12)	(43,3)	(40,7)	(-1,9)	(41,30)	(-75,21)	(-5,17)	(-73,11)	
L1D -38>	(-1,62)	(4,32)	(-75,22)	(-4,67)	(41,47)	(2,58)	(1,3)	(-9,5)	(40,120)	(42,38)	(-38,11)	(39,100)	(-72,11)	(-5,14)	(120,1)	(6,29)	
L1D -37>	(2,5)	(4,1)	(204,2)	(114,89)	(-1,36)	(44,4)	(41,11)	(5,1)	(46,61)	(110,16)	(-5,12)	(-70,1)	(38,3)	(-18,39)	(208,91)	(43,3)	
L1D -36>	(2,86)	(-72,1)	(4,4)	(-1,30)	(41,3)	(3,5)	(118,8)	(-2,6)	(-5,37)	(212,10)	(-37,73)	(-31,52)	(-33,8)	(-39,75)	(-19,20)	(34,3)	
L1D -35>	(-4,29)	(1,12)	(2,12)	(36,13)	(-1,78)	(37,2)	(-20,6)	(110,3)	(114,19)	(208,89)	(42,3)	(296,26)	(-72,1)	(126,1)	(-75,3)	(41,1)	
L1D -34>	(295,34)	(-1,39)	(290,15)	(4,89)	(-98,1)	(42,14)	(-7,39)	(-6,20)	(293,15)	(289,20)	(32,2)	(292,46)	(291,17)	(-4,81)	(294,28)	(288,19)	
L1D -33>	(293,13)	(294,8)	(38,1)	(295,6)	(34,6)	(-1,73)	(32,24)	(30,3)	(39,3)	(31,8)	(291,12)	(2,3)	(289,1)	(206,85)	(292,11)	(-99,8)	
L1D -32>	(293,24)	(292,9)	(289,9)	(31,66)	(114,3)	(208,5)	(288,5)	(295,6)	(-1,105)	(33,2)	(290,1)	(205,1)	(291,32)	(294,10)	(38,20)	(30,15)	
L1D -31>	(34,1)	(290,7)	(292,12)	(122,72)	(-1,53)	(294,11)	(293,24)	(288,20)	(-3,3)	(1,3)	(33,1)	(289,5)	(295,8)	(31,6)	(291,10)	(287,12)	
L1D -30>	(293,13)	(9,101)	(25,2)	(294,15)	(31,14)	(29,14)	(33,73)	(295,91)	(-1,47)	(16,3)	(32,10)	(12,10)	(289,7)	(287,3)	(288,3)	(291,30)	
L1D -29>	(292,15)	(-1,5)	(289,7)	(290,1)	(-3,1)	(287,6)	(295,113)	(288,7)	(30,5)	(34,7)	(291,6)	(26,1)	(294,35)	(31,10)	(37,2)	(25,49)	
L1D -28>	(23,125)	(112,13)	(291,5)	(292,31)	(294,10)	(21,1)	(27,69)	(295,13)	(29,6)	(-1,31)	(25,22)	(24,106)	(110,40)	(111,13)	(26,30)	(107,18)	
L1D -27>	(111,37)	(19,1)	(23,37)	(-1,74)	(290,8)	(25,14)	(109,18)	(108,5)	(110,49)	(21,16)	(18,31)	(27,16)	(24,18)	(26,21)	(20,31)	(295,8)	
L1D -26>	(-1,25)	(289,3)	(110,64)	(106,0)	(17,2)	(25,20)	(111,2)	(290,7)	(107,25)	(23,37)	(108,6)	(109,23)	(27,10)	(21,5)	(20,13)	(24,6)	
L1D -25>	(109,38)	(23,13)	(288,3)	(105,2)	(20,28)	(290,17)	(27,5)	(111,26)	(108,103)	(29,30)	(-1,31)	(110,12)	(295,22)	(19,22)	(106,4)	(25,14)	
L1D -24>	(108,36)	(24,1)	(27,19)	(26,11)	(22,13)	(110,18)	(103,5)	(105,25)	(21,75)	(18,59)	(109,36)	(20,7)	(107,13)	(106,26)	(-1,26)	(23,7)	
L1D -23>	(107,30)	(24,9)	(26,17)	(106,20)	(1,46)	(21,82)	(109,35)	(111,62)	(15,103)	(-1,27)	(27,1)	(110,63)	(20,63)	(108,30)	(105,16)	(19,25)	
L1D -22>	(106,111)	(23,11)	(1,30)	(107,49)	(12,6)	(-1,1)	(21,54)	(25,21)	(108,102)	(110,19)	(24,79)	(20,17)	(109,27)	(34,8)	(111,10)	(103,6)	
L1D -21>	(1,99)	(105,3)	(22,11)	(107,2)	(-9,4)	(25,1)	(21,4)	(103,9)	(106,19)	(26,1)	(104,9)	(111,4)	(100,5)	(109,3)	(110,8)	(27,1)	
L1D -20>	(1,3)	(10,122)	(39,0)	(20,60)	(21,35)	(110,3)	(26,0)	(111,3)	(19,9)	(7,2)	(161,3)	(22,3)	(27,0)	(-16,0)	(23,2)	(105,0)	
L1D -19>	(20,108)	(103,0)	(1,2)	(21,5)	(188,3)	(27,0)	(22,1)	(104,1)	(111,1)	(107,0)	(1,0)	(1,0)	(1,0)	(1,0)	(1,0)	(1,0)	
L1D -18>	(5,0)	(188,50)	(17,2)	(19,42)	(1,97)	(15,0)	(61,0)	(22,0)	(37,2)	(62,0)	(-16,0)	(27,6)	(2,0)	(40,0)	(-3,0)	(-12,0)	
L1D -17>	(4,1)	(18,58)	(15,102)	(189,0)	(60,53)	(0,17)	(-16,0)	(16,0)	(19,0)	(24,8)	(67,16)	(61,0)	(75,30)	(111,69)	(1,0)	(1,0)	
L1D -16>	(1,20)	(60,1)	(23,2)	(19,109)	(17,74)	(30,4)	(59,16)	(74,6)	(66,5)	(21,5)	(20,6)	(22,2)	(13,49)	(-7,5)	(29,36)	(189,6)	
L1D -15>	(16,2)	(189,0)	(-18,0)	(1,91)	(64,0)	(115,19)	(57,0)	(108,0)	(188,0)	(73,13)	(-17,0)	(18,0)	(59,6)	(14,1)	(58,2)	(17,0)	
L1D -14>	(1,8)	(15,66)	(130,5)	(16,6)	(13,1)	(17,1)	(29,1)	(-42,0)	(33,2)	(19,56)	(63,14)	(72,9)	(189,2)	(30,1)	(108,0)	(114,0)	
L1D -13>	(14,68)	(59,0)	(15,0)	(1,11)	(130,2)	(107,9)	(0,0)	(17,1)	(20,1)	(188,1)	(-16,0)	(5,3)	(19,2)	(29,0)	(1,0)	(1,0)	
L1D -12>	(64,0)	(94,64)	(112,1)	(30,5)	(1,1)	(130,0)	(-154,3)	(52,4)	(13,0)	(17,0)	(70,3)	(11,7)	(-16,0)	(2,0)	(29,0)	(106,0)	
L1D -11>	(10,17)	(12,17)	(69,106)	(1,15)	(9,6)	(93,8)	(-9,5)	(130,8)	(8,5)	(139,28)	(94,47)	(0,4)	(17,20)	(141,47)	(5,1)	(-22,9)	
L1D -10>	(-17,49)	(-20,1)	(94,20)	(21,73)	(103,32)	(1,28)	(11,3)	(139,2)	(141,2)	(-13,1)	(130,1)	(56,1)	(50,25)	(143,1)	(101,22)	(104,0)	
L1D -9>	(1,79)	(4,83)	(2,9)	(-42,4)	(7,58)	(-108,1)	(8,104)	(0,47)	(84,7)	(5,65)	(12,51)	(9,124)	(139,23)	(-99,43)	(130,111)	(11,52)	
L1D -8>	(84,1)	(7,8)	(8,112)	(9,23)	(3,1)	(0,1)	(4,1)	(263,2)	(48,1)	(-356,1)	(5,4)	(2,0)	(14,2)	(6,0)	(187,0)	(-94,0)	
L1D -7>	(9,27)	(3,29)	(1,29)	(6,39)	(2,50)	(4,27)	(-91,1)	(5,65)	(7,109)	(0,47)	(8,22)	(84,25)	(-1,36)	(-42,13)	(-92,14)	(85,17)	
L1D -6>	(5,100)	(1,18)	(2,13)	(6,41)	(8,14)	(-1,14)	(7,20)	(263,1)	(-92,8)	(49,5)	(4,27)	(84,7)	(-3,17)	(9,24)	(-100,9)	(-68,3)	
L1D -5>	(0,18)	(1,15)	(4,23)	(2,45)	(5,90)	(-42,17)	(-81,6)	(84,11)	(-88,1)	(-2,30)	(6,27)	(79,21)	(-4,36)	(3,54)	(7,71)	(8,18)	
L1D -4>	(1,21)	(-87,20)	(-3,52)	(2,53)	(-2,36)	(5,33)	(6,32)	(3,87)	(-198,1)	(84,32)	(7,13)	(-4,24)	(-133,7)	(4,29)	(8,103)	(-1,40)	
L1D -3>	(1,98)	(84,25)	(-5,62)	(0,15)	(-1,51)	(-2,79)	(-42,23)	(2,52)	(-4,67)	(4,32)	(87,16)	(6,32)	(7,46)	(3,62)	(-3,24)	(-91,1)	
L1D -2>	(-2,51)	(84,25)	(-3,89)	(0,11)	(1,77)	(5,9)	(-1,75)	(4,52)	(-4,51)	(-94,10)	(-5,46)	(2,31)	(3,21)	(-6,17)	(-91,1)	(-56,7)	
L1D -1>	(-1,91)	(-5,3)	(18,1)	(1,3)	(-57,2)	(-6,1)	(-92,2)	(11,2)	(202,1)	(0,1)	(-42,3)	(-96,1)	(-3,3)	(-4,4)	(44,2)	(-17,2)	
L1D 0>	(84,1)	(-7,2)	(0,96)	(-5,4)	(1,5)	(10,1)	(-3,1)	(-8,2)	(5,1)	(-2,1)	(2,1)	(-1,2)	(36,3)	(-4,1)	(-135,1)	(6,3)	
L1D 1>	(80,1)	(91,2)	(1,84)	(2,8)	(55,1)	(90,1)	(4,5)	(130,2)	(52,1)	(10,2)	(6,1)	(0,1)	(3,2)	(16,2)	(-1,2)	(13,2)	
L1D 2>	(1,127)	(-1,54)	(4,11)	(-4,16)	(-3,28)	(-2,80)	(-141,18)	(6,16)	(-8,18)	(-5,17)	(3,16)	(-93,14)	(7,19)	(128,1)	(2,12)	(5,19)	
L1D 3>	(-1,19)	(-2,47)	(-14,6)	(-3,92)	(175,8)	(1,46)	(4,57)	(3,11)	(84,1)	(-56,27)	(5,23)	(-5,25)	(0,4)	(-138,3)	(2,5)	(-6,12)	
L1D 4>	(-2,25)	(-1,35)	(1,15)	(-5,13)	(94,1)	(-3,82)	(-101,15)	(-111,7)	(-7,10)	(10,65)	(-4,48)	(3,2)	(-6,5)	(2,8)	(-8,3)	(84,14)	
L1D 5>	(-1,48)	(-2,70)	(-3,90)	(-4,48)	(2,29)	(-16,15)	(87,1)	(173,18)	(84,14)	(-90,20)	(-88,7)	(3,8)	(267,15)	(-5,49)	(1,14)	(-6,21)	
L1D 6>	(-5,36)	(-1,104)	(-2,16)	(-4,24)	(-6,48)	(42,7)	(-7,39)	(78,1)	(-3,38)	(1,11)	(-89,4)	(-9,23)	(-65,8)	(2,43)	(84,6)	(-8,10)	
L1D 7>	(-6,20)	(-1,14)	(0,6)	(-5,20)	(-8,7)	(-7,34)	(83,1)	(-110,4)	(-16,5)	(-2,65)	(84,8)	(-3,13)	(-89,7)	(1,4)	(-4,8)	(-9,3)	
L1D 8>	(-1,19)	(-27,1)	(-8,102)	(-9,7)	(-2,8)	(84,1)	(-3,11)	(-5,5)	(42,1)	(-39,2)	(-41,0)	(-86,0)	(-162,2)	(-6,0)	(-7,2)	(30,0)	
L1D 9>	(-8,64)	(-1,109)	(-7,5)	(84,5)	(-2,38)	(-4,62)	(3,20)	(0,4)	(-6,4)	(42,3)	(-10,2)	(83,1)	(-9,4)	(-5,4)	(-83,39)	(5,38)	
L1D 10>	(-7,29)	(-93,34)	(-1,53)	(-9,10)	(-94,32)	(-198,14)	(-5,27)	(9,81)	(-2,12)	(74,66)	(47,1)	(0,86)	(-99,58)	(-92,21)	(-83,21)	(-110,20)	
L1D 11>	(-1,85)	(8,0)	(-10,32)	(-2,8)	(83,0)	(2,2)	(-20,0)	(82,1)	(-33,2)	(23,2)	(5,1)	(44,2)	(58,2)	(-7,0)	(1,0)	(1,0)	
L1D 12>	(-11,39)	(40,66)	(-13,8)	(-2,10)	(1,26)	(-1,40)	(83,5)	(-166,68)	(93,1)	(45,1)	(-12,41)	(43,0)	(-10,33)	(100,11)	(94,5)	(58,5)	
L1D 13>	(-12,80)	(1,5)	(5,0)	(-21,0)	(117,0)	(-1,0)	(-14,0)	(84,13)	(38,0)	(37,0)	(36,0)	(1,0)	(1,0)	(1,0)	(1,0)	(1,0)	
L1D 14>	(1,68)	(5,1)	(-14,40)	(-15,3)	(-13,10)	(-36,0)	(6,0)	(-33,0)	(-1,1)	(19,0)	(-9,33)	(-12,0)	(2,2)	(21,0)	(3,1)	(48,1)	
L1D 15>	(-14,1)	(-17,4)	(0,3)	(11,98)	(-16,2)	(1,9)	(4,5)	(84,0)	(5,0)	(2,0)	(-1,0)	(18,0)	(-13,0)	(17,0)	(-32,0)	(7,6)	
L1D 16>	(-17,0)	(1,5)	(21,0)	(-14,0)	(-1,8)	(13,0)	(50,0)	(-15,81)	(-32,0)	(44,0)	(4,0)	(-33,0)	(94,8)	(141,0)	(39,0)	(-45,0)	
L1D 17>	(-16,43)	(0,106)	(-18,127)	(1,21)	(2,0)	(45,3)	(-2,0)	(44,13)	(-1,3)	(141,5)	(21,0)	(13,1)	(39,1)	(1,0)	(1,0)	(1,0)	
L1D 18>	(1,100)	(-33,0)	(-19,2)	(85,0)	(-34,0)	(84,28)	(-3,0)	(263,0)	(89,0)	(-16,0)	(1,0)	(1,0)	(1,0)	(1,0)	(1,0)	(1,0)	
L1D 19>	(1,42)	(84,60)	(-20,56)	(2,16)	(-1,21)	(-18,102)	(-480,1)	(-270,1)	(8,13)	(-5,2)	(85,6)	(170,9)	(88,2)	(-482,1)	(-3,1)	(-4,1)	
L1D 20>	(1,77)	(84,37)	(-20,32)	(168,0)	(8,1)	(89,0)	(-21,0)	(86,0)	(-19,0)	(169,2)	(91,3)	(85,2)	(5,2)	(7,1)	(6,2)	(2,3)	
L1D 21>	(84,48)	(-20,100)	(1,26)	(5,2)	(-22,5)	(79,1)	(85,4)	(89,4)	(175,1)	(86,1)	(90,4)	(2,2)	(81,1)	(78,1)	(6,4)	(87,2)	
L1D 22>	(84,98)	(-7,4)	(-10,9)	(83,1)	(1,11)	(-2,13)	(3,2)	(2,2)	(-4,3)	(-23,2)	(-3,3)	(-21,97)	(88,4)	(4,2)	(5,9)	(89,2)	
L1D 23>	(84,98)	(-4,20)	(-9,0)	(88,3)	(-6,0)	(83,0)	(-30,0)	(-24,12)	(87,17)	(-33,31)	(5,1)	(4,16)	(86,22)	(-7,18)	(85,3)	(3,1)	
L1D 24>	(-4,24)	(3,10)	(84,103)	(-3,14)	(-9,24)	(82,12)	(-25,12)	(-10,16)	(-1,3)	(-2,5)	(0,2)	(1,15)	(86,26)	(85,30)	(2,41)	(81,10)	
L1D 25>	(-2,1)	(4,3)	(84,105)	(-3,8)	(81,12)	(-1,5)	(82,3)	(-26,45)	(-4,17)	(263,32)	(86,12)	(85,75)	(2,5)	(83,5)	(270,6)	(8,3)	
L1D 26>	(84,53)	(-10,85)	(264,2)	(-27,7)	(82,4)	(263,2)	(-4,1)	(-9,2)	(85,0)	(1,0)	(2,2)	(-2,10)	(-1,5)	(269,7)	(83,7)	(-6,1)	
L1D 27>	(84,71)	(-2,8)	(-7,30)	(79,3)	(81,20)	(83,4)	(-28,12)	(266,0)	(-1,32)	(82,5)	(263,4)	(0,4)	(-4,3)	(-3,10)	(-9,8)	(76,15)	
L1D 28>	(-10,40)	(84,96)	(267,5)	(82,18)	(1,4)	(-30,6)	(5,1)	(80,29)	(3,7)	(259,1)	(2,7)	(266,18)	(-1,7)	(265,10)	(83,3)	(81,14)	
L1D 29>	(2,121)	(261,0)	(265,2)	(-30,11)	(1,40)	(266,47)	(8,54)	(260,2)	(264,1)	(-7,3)	(258,2)	(-31,5)	(-78,0)	(4,4)	(263,5)	(3,3)	
L1D 30>	(-31,66)	(-32,33)	(-30,11)	(-56,1)	(265,3)	(-10,89)	(2,3)	(261,3)	(-57,1)	(3,2)	(38,4)	(-21,4)	(40,2)	(262,6)	(107,14)	(264,28)	
L1D 31>	(2,84)	(1,3)	(-57,14)	(-28,91)	(-7,3)	(257,2)	(264,21)	(10,35)	(259,1)	(-32,112)	(8,34)	(262,8)	(-33,5)	(263,7)	(258,3)	(261,13)	
L1D 32>	(-5,0)	(262,6)	(6,6)	(1,6)	(-7,4)	(256,1)	(-33,125)	(260,2)	(-4,3)	(261,11)	(259,5)	(-2,7)	(4,13)	(-1,1)	(258,2)	(263,6)	
L1D 33>	(2,1)	(260,4)	(3,86)	(-132,73)	(255,1)	(173,11)	(10,7)	(6,11)	(261,9)	(-35,7)	(-34,2)	(-42,11)	(259,2)	(-1,10)	(263,1)	(262,2)	
L1D 34>	(1,29)	(255,6)	(260,9)	(-11,2)	(-42,118)	(176,4)	(-33,4)	(261,20)	(-36,31)	(-7,42)	(-35,33)	(-59,5)	(259,2)	(258,1)	(-133,28)	(2,1)	
L1D 35>	(-42,108)	(4,25)	(-44,5)	(-40,1)	(6,16)	(2,36)	(-11,1)	(-136,1)	(-134,20)	(-37,8)	(8,10)	(-132,18)	(75,5)	(-43,17)	(-141,2)	(-110,7)	
L1D 36>	(1,2)	(15,53)	(-42,65)	(-43,3)	(-57,1)	(5,0)	(2,0)	(-132,4)	(-41,0)	(4,9)	(-38,2)	(-84,2)	(-56,7)	(-37,21)	(-135,24)	(-48,3)	
L1D 37>	(-42,118)	(6,2)	(2,7)	(-36,12)	(-38,6)	(-57,7)	(-85,3)	(-45,2)	(-83,1)	(-110,3)	(-111,0)	(-39,1)	(-49,1)	(3,1)	(1,16)	(-40,3)	
L1D 38>	(-42,93)	(-47,1)	(3,4)	(-111,1)	(41,4)	(4,8)	(-84,8)	(-39,30)	(-108,1)	(-112,2)	(-40,6)	(6,2)	(-2,7)	(-113,2)	(-41,22)	(-132,7)	
L1D 39>	(-42,110)	(-141,2)	(-41,3)	(3,8)	(-36,10)	(-100,5)	(-40,12)	(2,4)	(-112,6)	(5,1)	(-45,2)	(-35,4)	(-84,8)	(-33,2)	(-133,2)	(167,2)	
L1D 40>	(-1,121)	(-42,113)	(-41,5)	(-115,22)	(-38,11)	(-108,29)	(-40,10)	(-116,7)	(-84,17)	(-48,1)	(-112,7)	(14,36)	(-110,11)	(-114,24)	(2,5)	(-50,5)	
L1D 41>	(-42,68)	(3,1)	(-116,8)	(1,24)	(-113,2)	(-2,22)	(-115,19)	(-48,20)	(-37,14)	(-1,14)	(-5,1)	(-114,14)	(-3,58)	(0,2)	(-43,5)	(-47,3)	
L1D 42>	(10,33)	(-1,37)	(-138,1)	(-41,21)	(-42,75)	(-44,18)	(-39,26)	(-3,5)	(-2,3)	(-50,2)	(1,70)	(-43,10)	(-114,12)	(-45,6)	(-117,28)	(-113,18)	
L1D 43>	(-42,67)	(-44,3)	(5,14)	(-40,30)	(-112,4)	(-111,2)	(-45,22)	(-39,10)	(-43,2)	(6,2)	(-38,2)	(16,1)	(-46,4)	(-100,3)	(-41,10)	(-109,1)	
L1D 44>	(-46,1)	(-96,3)	(-44,109)	(9,3)	(-42,6)	(-45,6)	(10,5)	(-43,4)	(-117,1)	(6,4)	(5,2)	(4,2)	(2,6)	(-1,0)	(1,1)	(3,3)	
L1D 45>	(-48,11)	(-46,11)	(-42,97)	(-44,12)	(1,5)	(2,8)	(5,8)	(-139,33)	(6,7)	(-47,8)	(-1,43)	(4,3)	(-6,8)	(-45,46)	(-2,1)	(-115,13)	
L1D 46>	(3,1)	(-42,89)	(-3,4)	(4,5)	(2,25)	(-2,40)	(-45,13)	(-117,110)	(84,107)	(-116,46)	(-1,38)	(-6,6)	(-43,22)	(-115,27)	(-118,6)	(-5,8)	
L1D 47>	(2,91)	(-42,94)	(-46,29)	(-4,11)	(-56,4)	(-2,11)	(-104,1)	(-1,15)	(-43,23)	(-117,1)	(-41,2)	(-50,1)	(-116,16)	(46,10)	(-5,5)	(-118,8)	
L1D 48>	(-114,1)	(-50,2)	(1,10)	(-42,85)	(-47,101)	(2,32)	(-2,3)	(-3,8)	(-159,37)	(-5,4)	(-49,73)	(-101,13)	(-1,87)	(-45,49)	(-105,10)	(-44,25)	
L1D 49>	(-106,1)	(44,14)	(-3,9)	(16,30)	(-42,96)	(-47,14)	(-43,6)	(2,29)	(1,64)	(0,6)	(-2,17)	(-6,28)	(-56,10)	(-50,42)	(-44,3)	(-52,85)	
L1D 50>	(-56,16)	(-49,13)	(-42,77)	(-43,8)	(-1,2)	(0,5)	(-51,19)	(-2,2)	(-102,3)	(2,3)	(-159,63)	(-158,1)	(-7,31)	(-6,8)	(-100,43)	(-4,17)	
L1D 51>	(-56,83)	(1,48)	(4,20)	(-42,21)	(-118,1)	(-3,4)	(-50,95)	(-117,1)	(-119,2)	(42,16)	(-4,2)	(-8,2)	(49,47)	(2,74)	(-2,8)	(-106,2)	
L1D 52>	(-56,71)	(-118,2)	(10,67)	(-50,29)	(-1,1)	(-52,22)	(-51,50)	(-4,1)	(0,14)	(-5,1)	(-119,1)	(-55,1)	(85,11)	(-53,7)	(-62,3)	(1,3)	
L1D 53>	(-56,89)	(-44,4)	(2,2)	(-2,18)	(-54,4)	(-119,1)	(-106,5)	(-55,2)	(-3,1)	(-118,1)	(-120,2)	(-63,1)	(-51,2)	(-57,3)	(-121,2)	(-6,3)	
L1D 54>	(-50,1)	(-56,38)	(3,82)	(-53,46)	(-57,3)	(-52,44)	(46,3)	(-121,3)	(44,34)	(-7,1)	(85,6)	(-55,4)	(48,3)	(2,4)	(4,1)	(50,3)	
L1D 55>	(-56,118)	(-5,1)	(-52,41)	(-121,38)	(-54,38)	(-3,2)	(-59,1)	(-7,1)	(-122,7)	(-120,2)	(-6,4)	(-8,2)	(-57,7)	(-123,12)	(-1,1)	(4,10)	
L1D 56>	(-1,8)	(-56,91)	(-3,8)	(-55,59)	(-4,17)	(-123,33)	(-58,5)	(5,4)	(-7,123)	(1,7)	(-57,12)	(-122,37)	(-2,45)	(-5,1)	(-68,32)	(2,30)	
L1D 57>	(-56,85)	(-53,5)	(-121,1)	(-2,1)	(-122,6)	(-1,1)	(-3,4)	(-4,0)	(4,1)	(-54,0)	(2,1)	(-52,1)	(0,0)	(-57,0)	(44,0)	(1,3)	
L1D 58>	(-56,65)	(-59,1)	(-57,53)	(-2,7)	(-58,0)	(-122,6)	(43,4)	(1,7)	(-70,8)	(67,1)	(-1,4)	(-123,3)	(-3,1)	(5,1)	(-118,0)	(-7,1)	
L1D 59>	(-56,31)	(-1,2)	(-58,23)	(43,1)	(4,2)	(-6,1)	(57,1)	(-5,3)	(-59,1)	(-54,4)	(-44,15)	(-57,103)	(-53,8)	(-55,2)	(-124,8)	(5,12)	
L1D 60>	(-56,23)	(-1,85)	(1,4)	(-122,0)	(-6,0)	(-3,1)	(-7,2)	(-124,0)	(-59,6)	(-57,2)	(-123,1)	(-44,3)	(-54,2)	(-121,2)	(-4,1)	(-55,0)	
L1D 61>	(-56,78)	(-44,1)	(59,0)	(-60,4)	(60,0)	(3,0)	(-4,1)	(-55,2)	(-123,4)	(63,0)	(2,0)	(-59,0)	(-58,3)	(-122,1)	(0,28)	(-57,14)	
L1D 62>	(-56,51)	(-5,11)	(1,10)	(61,3)	(57,3)	(2,16)	(-224,4)	(-45,1)	(-124,22)	(4,10)	(60,12)	(-55,42)	(-58,5)	(-57,9)	(-60,17)	(-123,6)	
L1D 63>	(-56,85)	(59,6)	(60,24)	(1,35)	(0,46)	(2,8)	(57,1)	(3,91)	(-55,6)	(52,7)	(54,16)	(-64,20)	(58,5)	(-57,3)	(-59,5)	(4,1)	
L1D 64>	(1,32)	(53,2)	(-65,32)	(-56,11)	(59,5)	(2,23)	(3,23)	(55,3)	(58,74)	(-63,62)	(-34,12)	(56,40)	(52,3)	(57,4)	(60,1)	(-55,1)	
L1D 65>	(58,13)	(-56,3)	(-64,63)	(-66,80)	(1,2)	(55,19)	(-51,2)	(53,2)	(54,27)	(-59,1)	(2,15)	(-2,5)	(51,5)	(5,2)	(56,20)	(4,3)	
L1D 66>	(-56,12)	(-1,6)	(57,13)	(54,1)	(-67,34)	(1,15)	(55,4)	(53,25)	(50,8)	(58,3)	(-36,84)	(52,15)	(56,20)	(-49,19)	(42,88)	(-65,109)	
L1D 67>	(55,15)	(-1,18)	(-2,3)	(5,3)	(-66,31)	(54,8)	(-68,1)	(-137,11)	(-107,4)	(3,3)	(52,2)	(47,28)	(-49,69)	(53,10)	(43,5)	(50,1)	
L1D 68>	(5,42)	(41,6)	(44,25)	(1,7)	(40,12)	(55,8)	(-49,3)	(-69,32)	(39,24)	(46,52)	(-2,18)	(49,80)	(6,1)	(-38,12)	(2,15)	(43,89)	
L1D 69>	(-2,15)	(44,36)	(43,68)	(-70,122)	(2,14)	(3,41)	(-125,13)	(1,47)	(-57,106)	(45,16)	(40,11)	(0,1)	(41,44)	(47,12)	(46,123)	(48,5)	
L1D 70>	(44,54)	(-71,48)	(2,36)	(4,15)	(38,7)	(46,31)	(3,39)	(-57,38)	(41,22)	(45,1)	(43,43)	(1,18)	(40,13)	(42,45)	(67,9)	(39,14)	
L1D 71>	(1,5)	(-72,94)	(39,5)	(44,14)	(-2,73)	(41,14)	(-1,5)	(40,1)	(46,22)	(43,11)	(42,32)	(45,16)	(37,11)	(2,5)	(-3,2)	(38,8)	
L1D 72>	(-73,76)	(43,16)	(40,6)	(45,8)	(-1,4)	(-2,27)	(41,9)	(42,22)	(37,1)	(39,21)	(-4,1)	(38,2)	(-36,35)	(-6,36)	(-57,10)	(44,27)	
L1D 73>	(-1,41)	(41,36)	(38,8)	(-3,27)	(-100,8)	(-2,18)	(39,14)	(-99,8)	(44,3)	(-5,1)	(1,4)	(-74,38)	(40,5)	(37,7)	(-57,118)	(42,4)	
L1D 74>	(40,4)	(-2,6)	(-75,48)	(-4,2)	(-83,8)	(10,106)	(9,1)	(-57,1)	(-7,3)	(-3,7)	(-36,19)	(-58,30)	(-5,1)	(-74,27)	(41,5)	(-76,7)	
L1D 75>	(-43,0)	(-99,0)	(40,3)	(-2,3)	(41,6)	(-100,0)	(37,0)	(-4,1)	(39,12)	(-57,79)	(38,1)	(-76,6)	(-42,2)	(-1,14)	(-3,2)	(7,0)	
L1D 76>	(37,2)	(41,7)	(40,15)	(-77,11)	(-80,0)	(8,1)	(-83,66)	(-60,0)	(-2,2)	(-57,4)	(93,1)	(-42,6)	(36,3)	(35,1)	(-58,2)	(39,1)	
L1D 77>	(-83,25)	(7,31)	(1,1)	(-78,2)	(-76,1)	(9,22)	(4,3)	(5,5)	(-80,2)	(-105,2)	(-100,1)	(1,0)	(1,0)	(1,0)	(1,0)	(1,0)	
L1D 78>	(-57,1)	(1,5)	(-75,0)	(-78,0)	(6,1)	(-105,1)	(5,115)	(95,3)	(2,0)	(-98,1)	(8,1)	(4,2)	(-82,3)	(3,5)	(-114,0)	(-81,2)	
L1D 79>	(4,1)	(-83,6)	(6,1)	(5,116)	(-82,0)	(95,0)	(2,8)	(-81,2)	(-114,0)	(-100,6)	(-107,18)	(-99,8)	(3,4)	(-80,0)	(10,1)	(-106,1)	
L1D 80>	(-83,24)	(-109,1)	(-85,1)	(4,7)	(-106,1)	(-108,12)	(48,5)	(-2,3)	(3,19)	(-42,2)	(-81,3)	(-107,7)	(-82,15)	(50,10)	(-75,108)	(-84,6)	
L1D 81>	(-83,50)	(3,62)	(-108,33)	(-105,31)	(1,7)	(-80,35)	(-79,7)	(2,8)	(-109,17)	(-82,41)	(-89,23)	(-88,1)	(-84,69)	(-86,11)	(-81,18)	(-107,12)	
L1D 82>	(-79,1)	(-83,101)	(-105,1)	(-142,0)	(-85,0)	(3,1)	(-84,2)	(-141,0)	(4,0)	(-42,0)	(-2,0)	(-1,0)	(-39,0)	(-86,0)	(-108,2)	(-109,2)	
L1D 83>	(-1,25)	(-82,56)	(1,21)	(2,15)	(-2,45)	(-84,121)	(-89,1)	(-81,34)	(-85,78)	(-80,10)	(-86,86)	(10,41)	(-87,63)	(-83,102)	(-90,9)	(-111,67)	
L1D 84>	(3,1)	(-83,109)	(-108,10)	(-85,67)	(-86,34)	(-1,54)	(-79,30)	(-111,36)	(-88,27)	(-110,17)	(-80,44)	(-87,40)	(-81,32)	(-82,93)	(-109,18)	(-84,37)	
L1D 85>	(-3,28)	(-108,41)	(-92,11)	(-94,9)	(-1,25)	(-84,1)	(-110,35)	(-83,93)	(-86,26)	(-137,41)	(-138,19)	(1,63)	(-2,13)	(5,18)	(-87,47)	(-85,17)	
L1D 86>	(-2,57)	(-88,26)	(-85,24)	(-1,29)	(-94,25)	(-89,10)	(-92,81)	(48,1)	(-87,26)	(-4,7)	(-3,8)	(-112,20)	(1,35)	(-111,66)	(-83,34)	(2,80)	
L1D 87>	(-86,2)	(-94,11)	(-92,4)	(-84,37)	(1,1)	(-85,9)	(-82,2)	(-1,14)	(-83,4)	(-2,15)	(-3,4)	(-111,23)	(-89,19)	(-4,87)	(-5,18)	(9,46)	
L1D 88>	(-85,14)	(-94,8)	(-86,14)	(-92,10)	(-111,5)	(-107,13)	(-4,67)	(-89,21)	(-1,48)	(10,14)	(-82,1)	(-2,20)	(-84,20)	(3,2)	(9,4)	(4,52)	
L1D 89>	(-198,6)	(-92,5)	(-94,10)	(-201,4)	(51,29)	(1,32)	(10,1)	(-85,67)	(-3,7)	(0,3)	(-2,16)	(-88,6)	(-84,11)	(-87,6)	(-1,2)	(3,29)	
L1D 90>	(-89,27)	(-91,1)	(-94,35)	(10,107)	(1,4)	(-1,29)	(50,18)	(-92,34)	(-198,3)	(-202,2)	(-205,4)	(-85,7)	(-90,2)	(-84,9)	(-201,8)	(40,1)	
L1D 91>	(-90,78)	(-93,20)	(7,13)	(-85,1)	(-94,5)	(-3,4)	(-89,5)	(-1,3)	(-92,45)	(-6,2)	(0,5)	(-2,1)	(2,2)	(-199,9)	(-111,3)	(3,40)	
L1D 92>	(-91,83)	(-94,15)	(-84,9)	(-144,9)	(-92,34)	(6,16)	(-202,7)	(-208,2)	(-93,37)	(-3,5)	(-89,1)	(-90,4)	(1,3)	(-201,3)	(-1,6)	(3,1)	
L1D 93>	(-95,13)	(-94,113)	(-42,1)	(-209,3)	(2,2)	(-92,71)	(-2,24)	(-93,12)	(-3,7)	(-6,6)	(-96,3)	(-203,49)	(-49,84)	(3,6)	(-208,17)	(-1,43)	
L1D 94>	(-4,12)	(-93,99)	(-2,9)	(-94,88)	(-83,69)	(-1,26)	(-3,20)	(-5,1)	(-92,12)	(-206,11)	(-205,15)	(-208,10)	(-204,1)	(-209,6)	(10,40)	(-97,5)	
L1D 95>	(-94,71)	(-95,16)	(-91,5)	(-92,23)	(-204,14)	(7,10)	(2,6)	(-2,10)	(-93,4)	(-87,11)	(0,3)	(-209,5)	(-3,2)	(-1,43)	(-206,3)	(4,1)	
L1D 96>	(-1,13)	(-94,19)	(-95,98)	(-4,26)	(-2,7)	(-45,25)	(-91,5)	(-92,16)	(-206,5)	(-209,6)	(-87,3)	(0,21)	(-208,4)	(-97,9)	(-203,4)	(2,1)	
L1D 97>	(-94,116)	(-95,12)	(36,1)	(1,8)	(-202,1)	(2,9)	(-92,1)	(4,4)	(-1,7)	(-4,4)	(-102,1)	(5,25)	(0,1)	(-5,5)	(-96,94)	(-93,6)	
L1D 98>	(-1,74)	(-94,96)	(-6,15)	(-210,40)	(-97,29)	(-4,49)	(-2,55)	(-92,5)	(48,2)	(-3,8)	(-5,9)	(-7,14)	(-208,1)	(-95,17)	(-96,8)	(-209,4)	
L1D 99>	(-98,109)	(-7,2)	(-94,63)	(-4,5)	(-101,2)	(-93,2)	(-95,2)	(-1,1)	(-2,26)	(2,1)	(-92,28)	(-3,9)	(-97,6)	(-96,5)	(-5,2)	(-207,2)	
L1D 100>	(-99,77)	(-6,5)	(-3,2)	(-5,4)	(-8,0)	(35,2)	(-94,1)	(-49,0)	(33,21)	(34,1)	(10,0)	(-7,0)	(36,14)	(-210,1)	(5,1)	(-92,0)	
L1D 101>	(-100,6)	(10,90)	(-92,90)	(-99,0)	(-6,2)	(-94,21)	(-210,0)	(2,0)	(-98,1)	(-1,7)	(4,11)	(-50,21)	(-49,1)	(0,1)	(-8,0)	(5,3)	
L1D 102>	(1,9)	(-94,59)	(2,15)	(-1,5)	(7,18)	(-2,4)	(4,8)	(-7,1)	(3,34)	(-43,3)	(-92,5)	(5,1)	(-103,107)	(-44,16)	(39,10)	(-101,2)	
L1D 103>	(-80,1)	(-81,1)	(2,2)	(-1,0)	(95,0)	(-83,4)	(-94,78)	(39,3)	(-42,28)	(4,3)	(-104,3)	(-84,4)	(0,1)	(93,25)	(-82,0)	(6,2)	
L1D 104>	(1,34)	(5,43)	(-82,12)	(-105,30)	(-76,6)	(2,29)	(3,12)	(-6,25)	(-5,39)	(-2,33)	(-94,15)	(96,8)	(4,1)	(-83,23)	(-48,12)	(-80,6)	
L1D 105>	(1,33)	(3,28)	(-79,12)	(-83,106)	(4,18)	(0,10)	(-106,93)	(-2,14)	(2,26)	(-78,72)	(-42,26)	(96,6)	(95,39)	(-3,8)	(-77,6)	(-1,1)	
L1D 106>	(-107,100)	(1,71)	(-83,39)	(3,14)	(88,1)	(-48,42)	(-76,2)	(-2,105)	(2,37)	(-87,3)	(-79,11)	(-80,30)	(-93,4)	(-82,6)	(-84,74)	(-105,49)	
L1D 107>	(-128,7)	(-108,84)	(-92,1)	(-42,29)	(-1,3)	(-40,45)	(-93,13)	(-80,14)	(-106,27)	(-2,5)	(-82,3)	(96,3)	(91,3)	(-83,20)	(-81,12)	(1,8)	
L1D 108>	(92,6)	(-109,103)	(96,4)	(-42,8)	(-2,9)	(-86,1)	(99,2)	(1,5)	(-80,1)	(89,3)	(-82,20)	(-84,23)	(95,3)	(50,15)	(-85,4)	(-83,2)	
L1D 109>	(-2,32)	(-110,74)	(-40,21)	(-82,13)	(-81,4)	(-42,52)	(-1,14)	(-39,6)	(96,1)	(-43,56)	(92,14)	(-5,14)	(-84,26)	(-85,12)	(95,6)	(-86,13)	
L1D 110>	(-2,45)	(-87,9)	(-42,100)	(-85,10)	(-88,6)	(-111,33)	(-86,6)	(48,20)	(-84,21)	(-83,13)	(2,1)	(94,34)	(-1,2)	(-100,7)	(95,5)	(1,2)	
L1D 111>	(-40,2)	(94,15)	(-90,3)	(92,3)	(-1,7)	(-42,47)	(1,2)	(-86,7)	(-100,3)	(-93,84)	(-112,21)	(-4,1)	(-2,3)	(-84,6)	(-39,9)	(98,1)	
L1D 112>	(-41,8)	(-42,84)	(92,2)	(97,4)	(-94,4)	(-100,29)	(-44,3)	(-113,10)	(-45,29)	(91,2)	(-46,5)	(-43,2)	(96,18)	(-38,13)	(-76,5)	(-40,2)	
L1D 113>	(-42,111)	(92,2)	(-114,26)	(-45,5)	(96,3)	(-47,4)	(-43,4)	(93,5)	(-41,30)	(95,4)	(90,1)	(-40,9)	(-46,10)	(-2,26)	(94,24)	(-39,11)	
L1D 114>	(-100,63)	(-3,3)	(-42,66)	(-115,15)	(-41,1)	(-2,18)	(92,6)	(91,5)	(-78,6)	(94,14)	(93,3)	(-46,9)	(3,1)	(-40,15)	(-44,5)	(-45,10)	
L1D 115>	(93,3)	(-42,106)	(-2,26)	(-56,13)	(94,3)	(-1,14)	(-44,1)	(-47,6)	(-6,8)	(-43,20)	(-41,13)	(91,4)	(-116,7)	(-99,105)	(-7,10)	(-45,10)	
L1D 116>	(-42,78)	(-43,15)	(-49,2)	(-3,3)	(-100,83)	(-117,12)	(-41,1)	(2,3)	(-4,1)	(-56,46)	(-47,1)	(-44,9)	(-45,0)	(-99,0)	(92,1)	(-5,6)	
L1D 117>	(-56,52)	(-1,14)	(-42,71)	(-49,4)	(-7,11)	(-2,2)	(-118,1)	(-47,1)	(-100,0)	(-44,3)	(4,0)	(-46,1)	(-99,4)	(-43,5)	(-5,6)	(-3,1)	
L1D 118>	(-100,93)	(-56,50)	(-42,18)	(-81,2)	(-52,1)	(-2,1)	(-53,90)	(-1,1)	(-99,0)	(-101,0)	(1,0)	(1,0)	(1,0)	(1,0)	(1,0)	(1,0)	
L1D 119>	(-56,96)	(-52,1)	(2,0)	(-4,13)	(-54,23)	(-53,41)	(3,4)	(-120,8)	(4,3)	(-1,0)	(1,0)	(1,0)	(1,0)	(1,0)	(1,0)	(1,0)	
L1D 120>	(-56,86)	(-4,22)	(3,2)	(-100,19)	(-121,13)	(-2,8)	(-54,12)	(-55,16)	(-3,35)	(2,1)	(-81,0)	(-1,3)	(1,0)	(1,0)	(1,0)	(1,0)	
L1D 121>	(-56,74)	(1,1)	(-122,15)	(2,10)	(-55,31)	(-2,1)	(-3,7)	(-57,1)	(9,12)	(3,1)	(-1,4)	(-59,1)	(1,0)	(1,0)	(1,0)	(1,0)	
L1D 122>	(2,0)	(-56,62)	(1,1)	(-3,1)	(-123,7)	(-106,81)	(-5,15)	(-105,3)	(-2,6)	(-57,13)	(-58,18)	(-60,1)	(-59,1)	(-6,2)	(-1,0)	(1,0)	
L1D 123>	(-56,26)	(-2,0)	(-106,0)	(-7,0)	(-1,4)	(-124,0)	(-64,74)	(-95,0)	(-57,4)	(1,0)	(-105,4)	(-59,1)	(-4,0)	(-96,0)	(1,0)	(1,0)	
L1D 124>	(-56,49)	(-106,15)	(-1,2)	(-60,1)	(-58,1)	(-57,2)	(-59,1)	(1,0)	(1,0)	(1,0)	(1,0)	(1,0)	(1,0)	(1,0)	(1,0)	(1,0)	
L1D 125>	(-137,11)	(-67,1)	(1,0)	(1,0)	(1,0)	(1,0)	(1,0)	(1,0)	(1,0)	(1,0)	(1,0)	(1,0)	(1,0)	(1,0)	(1,0)	(1,0)	
L1D 126>	(-106,76)	(-95,1)	(1,0)	(1,0)	(1,0)	(1,0)	(1,0)	(1,0)	(1,0)	(1,0)	(1,0)	(1,0)	(1,0)	(1,0)	(1,0)	(1,0)	
L1D 127>	(-73,14)	(0,28)	(-84,3)	(1,0)	(1,0)	(1,0)	(1,0)	(1,0)	(1,0)	(1,0)	(1,0)	(1,0)	(1,0)	(1,0)	(1,0)	(1,0)	
[...]
L1D 454>	(1,0)	(1,0)	(1,0)	(1,0)	(1,0)	(1,0)	(1,0)	(1,0)	(1,0)	(1,0)	(1,0)	(1,0)	(1,0)	(1,0)	(1,0)	(1,0)	
L1D 455>	(1,0)	(1,0)	(1,0)	(1,0)	(1,0)	(1,0)	(1,0)	(1,0)	(1,0)	(1,0)	(1,0)	(1,0)	(1,0)	(1,0)	(1,0)	(1,0)	
L1D 456>	(1,0)	(1,0)	(1,0)	(1,0)	(1,0)	(1,0)	(1,0)	(1,0)	(1,0)	(1,0)	(1,0)	(1,0)	(1,0)	(1,0)	(1,0)	(1,0)	
L1D 457>	(1,0)	(1,0)	(1,0)	(1,0)	(1,0)	(1,0)	(1,0)	(1,0)	(1,0)	(1,0)	(1,0)	(1,0)	(1,0)	(1,0)	(1,0)	(1,0)	
L1D 458>	(1,0)	(1,0)	(1,0)	(1,0)	(1,0)	(1,0)	(1,0)	(1,0)	(1,0)	(1,0)	(1,0)	(1,0)	(1,0)	(1,0)	(1,0)	(1,0)	
L1D 459>	(1,0)	(1,0)	(1,0)	(1,0)	(1,0)	(1,0)	(1,0)	(1,0)	(1,0)	(1,0)	(1,0)	(1,0)	(1,0)	(1,0)	(1,0)	(1,0)	
L1D 460>	(1,0)	(1,0)	(1,0)	(1,0)	(1,0)	(1,0)	(1,0)	(1,0)	(1,0)	(1,0)	(1,0)	(1,0)	(1,0)	(1,0)	(1,0)	(1,0)	
L1D 461>	(1,0)	(1,0)	(1,0)	(1,0)	(1,0)	(1,0)	(1,0)	(1,0)	(1,0)	(1,0)	(1,0)	(1,0)	(1,0)	(1,0)	(1,0)	(1,0)	
L1D 462>	(1,0)	(1,0)	(1,0)	(1,0)	(1,0)	(1,0)	(1,0)	(1,0)	(1,0)	(1,0)	(1,0)	(1,0)	(1,0)	(1,0)	(1,0)	(1,0)	
L1D 463>	(1,0)	(1,0)	(1,0)	(1,0)	(1,0)	(1,0)	(1,0)	(1,0)	(1,0)	(1,0)	(1,0)	(1,0)	(1,0)	(1,0)	(1,0)	(1,0)	
L1D 464>	(1,0)	(1,0)	(1,0)	(1,0)	(1,0)	(1,0)	(1,0)	(1,0)	(1,0)	(1,0)	(1,0)	(1,0)	(1,0)	(1,0)	(1,0)	(1,0)	
L1D 465>	(1,0)	(1,0)	(1,0)	(1,0)	(1,0)	(1,0)	(1,0)	(1,0)	(1,0)	(1,0)	(1,0)	(1,0)	(1,0)	(1,0)	(1,0)	(1,0)	
L1D 466>	(1,0)	(1,0)	(1,0)	(1,0)	(1,0)	(1,0)	(1,0)	(1,0)	(1,0)	(1,0)	(1,0)	(1,0)	(1,0)	(1,0)	(1,0)	(1,0)	
L1D 467>	(1,0)	(1,0)	(1,0)	(1,0)	(1,0)	(1,0)	(1,0)	(1,0)	(1,0)	(1,0)	(1,0)	(1,0)	(1,0)	(1,0)	(1,0)	(1,0)	
L1D 468>	(1,0)	(1,0)	(1,0)	(1,0)	(1,0)	(1,0)	(1,0)	(1,0)	(1,0)	(1,0)	(1,0)	(1,0)	(1,0)	(1,0)	(1,0)	(1,0)	
L1D 469>	(1,0)	(1,0)	(1,0)	(1,0)	(1,0)	(1,0)	(1,0)	(1,0)	(1,0)	(1,0)	(1,0)	(1,0)	(1,0)	(1,0)	(1,0)	(1,0)	
L1D 470>	(1,0)	(1,0)	(1,0)	(1,0)	(1,0)	(1,0)	(1,0)	(1,0)	(1,0)	(1,0)	(1,0)	(1,0)	(1,0)	(1,0)	(1,0)	(1,0)	
L1D 471>	(1,0)	(1,0)	(1,0)	(1,0)	(1,0)	(1,0)	(1,0)	(1,0)	(1,0)	(1,0)	(1,0)	(1,0)	(1,0)	(1,0)	(1,0)	(1,0)	
L1D 472>	(1,0)	(1,0)	(1,0)	(1,0)	(1,0)	(1,0)	(1,0)	(1,0)	(1,0)	(1,0)	(1,0)	(1,0)	(1,0)	(1,0)	(1,0)	(1,0)	
L1D 473>	(1,0)	(1,0)	(1,0)	(1,0)	(1,0)	(1,0)	(1,0)	(1,0)	(1,0)	(1,0)	(1,0)	(1,0)	(1,0)	(1,0)	(1,0)	(1,0)	
L1D 474>	(1,0)	(1,0)	(1,0)	(1,0)	(1,0)	(1,0)	(1,0)	(1,0)	(1,0)	(1,0)	(1,0)	(1,0)	(1,0)	(1,0)	(1,0)	(1,0)	
L1D 475>	(1,0)	(1,0)	(1,0)	(1,0)	(1,0)	(1,0)	(1,0)	(1,0)	(1,0)	(1,0)	(1,0)	(1,0)	(1,0)	(1,0)	(1,0)	(1,0)	
L1D 476>	(1,0)	(1,0)	(1,0)	(1,0)	(1,0)	(1,0)	(1,0)	(1,0)	(1,0)	(1,0)	(1,0)	(1,0)	(1,0)	(1,0)	(1,0)	(1,0)	
L1D 477>	(1,0)	(1,0)	(1,0)	(1,0)	(1,0)	(1,0)	(1,0)	(1,0)	(1,0)	(1,0)	(1,0)	(1,0)	(1,0)	(1,0)	(1,0)	(1,0)	
L1D 478>	(1,0)	(1,0)	(1,0)	(1,0)	(1,0)	(1,0)	(1,0)	(1,0)	(1,0)	(1,0)	(1,0)	(1,0)	(1,0)	(1,0)	(1,0)	(1,0)	
L1D 479>	(1,0)	(1,0)	(1,0)	(1,0)	(1,0)	(1,0)	(1,0)	(1,0)	(1,0)	(1,0)	(1,0)	(1,0)	(1,0)	(1,0)	(1,0)	(1,0)	
L1D 480>	(1,0)	(1,0)	(1,0)	(1,0)	(1,0)	(1,0)	(1,0)	(1,0)	(1,0)	(1,0)	(1,0)	(1,0)	(1,0)	(1,0)	(1,0)	(1,0)	
L1D 481>	(1,0)	(1,0)	(1,0)	(1,0)	(1,0)	(1,0)	(1,0)	(1,0)	(1,0)	(1,0)	(1,0)	(1,0)	(1,0)	(1,0)	(1,0)	(1,0)	
L1D 482>	(1,0)	(1,0)	(1,0)	(1,0)	(1,0)	(1,0)	(1,0)	(1,0)	(1,0)	(1,0)	(1,0)	(1,0)	(1,0)	(1,0)	(1,0)	(1,0)	
L1D 483>	(1,0)	(1,0)	(1,0)	(1,0)	(1,0)	(1,0)	(1,0)	(1,0)	(1,0)	(1,0)	(1,0)	(1,0)	(1,0)	(1,0)	(1,0)	(1,0)	
L1D 484>	(1,0)	(1,0)	(1,0)	(1,0)	(1,0)	(1,0)	(1,0)	(1,0)	(1,0)	(1,0)	(1,0)	(1,0)	(1,0)	(1,0)	(1,0)	(1,0)	
L1D 485>	(1,0)	(1,0)	(1,0)	(1,0)	(1,0)	(1,0)	(1,0)	(1,0)	(1,0)	(1,0)	(1,0)	(1,0)	(1,0)	(1,0)	(1,0)	(1,0)	
L1D 486>	(1,0)	(1,0)	(1,0)	(1,0)	(1,0)	(1,0)	(1,0)	(1,0)	(1,0)	(1,0)	(1,0)	(1,0)	(1,0)	(1,0)	(1,0)	(1,0)	
L1D 487>	(1,0)	(1,0)	(1,0)	(1,0)	(1,0)	(1,0)	(1,0)	(1,0)	(1,0)	(1,0)	(1,0)	(1,0)	(1,0)	(1,0)	(1,0)	(1,0)	
L1D 488>	(1,0)	(1,0)	(1,0)	(1,0)	(1,0)	(1,0)	(1,0)	(1,0)	(1,0)	(1,0)	(1,0)	(1,0)	(1,0)	(1,0)	(1,0)	(1,0)	
L1D 489>	(1,0)	(1,0)	(1,0)	(1,0)	(1,0)	(1,0)	(1,0)	(1,0)	(1,0)	(1,0)	(1,0)	(1,0)	(1,0)	(1,0)	(1,0)	(1,0)	
L1D 490>	(1,0)	(1,0)	(1,0)	(1,0)	(1,0)	(1,0)	(1,0)	(1,0)	(1,0)	(1,0)	(1,0)	(1,0)	(1,0)	(1,0)	(1,0)	(1,0)	
L1D 491>	(1,0)	(1,0)	(1,0)	(1,0)	(1,0)	(1,0)	(1,0)	(1,0)	(1,0)	(1,0)	(1,0)	(1,0)	(1,0)	(1,0)	(1,0)	(1,0)	
L1D 492>	(1,0)	(1,0)	(1,0)	(1,0)	(1,0)	(1,0)	(1,0)	(1,0)	(1,0)	(1,0)	(1,0)	(1,0)	(1,0)	(1,0)	(1,0)	(1,0)	
L1D 493>	(1,0)	(1,0)	(1,0)	(1,0)	(1,0)	(1,0)	(1,0)	(1,0)	(1,0)	(1,0)	(1,0)	(1,0)	(1,0)	(1,0)	(1,0)	(1,0)	
L1D 494>	(1,0)	(1,0)	(1,0)	(1,0)	(1,0)	(1,0)	(1,0)	(1,0)	(1,0)	(1,0)	(1,0)	(1,0)	(1,0)	(1,0)	(1,0)	(1,0)	
L1D 495>	(1,0)	(1,0)	(1,0)	(1,0)	(1,0)	(1,0)	(1,0)	(1,0)	(1,0)	(1,0)	(1,0)	(1,0)	(1,0)	(1,0)	(1,0)	(1,0)	
L1D 496>	(1,0)	(1,0)	(1,0)	(1,0)	(1,0)	(1,0)	(1,0)	(1,0)	(1,0)	(1,0)	(1,0)	(1,0)	(1,0)	(1,0)	(1,0)	(1,0)	
L1D 497>	(1,0)	(1,0)	(1,0)	(1,0)	(1,0)	(1,0)	(1,0)	(1,0)	(1,0)	(1,0)	(1,0)	(1,0)	(1,0)	(1,0)	(1,0)	(1,0)	
L1D 498>	(1,0)	(1,0)	(1,0)	(1,0)	(1,0)	(1,0)	(1,0)	(1,0)	(1,0)	(1,0)	(1,0)	(1,0)	(1,0)	(1,0)	(1,0)	(1,0)	
L1D 499>	(1,0)	(1,0)	(1,0)	(1,0)	(1,0)	(1,0)	(1,0)	(1,0)	(1,0)	(1,0)	(1,0)	(1,0)	(1,0)	(1,0)	(1,0)	(1,0)	
L1D 500>	(1,0)	(1,0)	(1,0)	(1,0)	(1,0)	(1,0)	(1,0)	(1,0)	(1,0)	(1,0)	(1,0)	(1,0)	(1,0)	(1,0)	(1,0)	(1,0)	
L1D 501>	(1,0)	(1,0)	(1,0)	(1,0)	(1,0)	(1,0)	(1,0)	(1,0)	(1,0)	(1,0)	(1,0)	(1,0)	(1,0)	(1,0)	(1,0)	(1,0)	
L1D 502>	(1,0)	(1,0)	(1,0)	(1,0)	(1,0)	(1,0)	(1,0)	(1,0)	(1,0)	(1,0)	(1,0)	(1,0)	(1,0)	(1,0)	(1,0)	(1,0)	
L1D 503>	(1,0)	(1,0)	(1,0)	(1,0)	(1,0)	(1,0)	(1,0)	(1,0)	(1,0)	(1,0)	(1,0)	(1,0)	(1,0)	(1,0)	(1,0)	(1,0)	
L1D 504>	(1,0)	(1,0)	(1,0)	(1,0)	(1,0)	(1,0)	(1,0)	(1,0)	(1,0)	(1,0)	(1,0)	(1,0)	(1,0)	(1,0)	(1,0)	(1,0)	
L1D 505>	(1,0)	(1,0)	(1,0)	(1,0)	(1,0)	(1,0)	(1,0)	(1,0)	(1,0)	(1,0)	(1,0)	(1,0)	(1,0)	(1,0)	(1,0)	(1,0)	
L1D 506>	(1,0)	(1,0)	(1,0)	(1,0)	(1,0)	(1,0)	(1,0)	(1,0)	(1,0)	(1,0)	(1,0)	(1,0)	(1,0)	(1,0)	(1,0)	(1,0)	
L1D 507>	(1,0)	(1,0)	(1,0)	(1,0)	(1,0)	(1,0)	(1,0)	(1,0)	(1,0)	(1,0)	(1,0)	(1,0)	(1,0)	(1,0)	(1,0)	(1,0)	
L1D 508>	(1,0)	(1,0)	(1,0)	(1,0)	(1,0)	(1,0)	(1,0)	(1,0)	(1,0)	(1,0)	(1,0)	(1,0)	(1,0)	(1,0)	(1,0)	(1,0)	
L1D 509>	(1,0)	(1,0)	(1,0)	(1,0)	(1,0)	(1,0)	(1,0)	(1,0)	(1,0)	(1,0)	(1,0)	(1,0)	(1,0)	(1,0)	(1,0)	(1,0)	
L1D 510>	(1,0)	(1,0)	(1,0)	(1,0)	(1,0)	(1,0)	(1,0)	(1,0)	(1,0)	(1,0)	(1,0)	(1,0)	(1,0)	(1,0)	(1,0)	(1,0)	
L1D 511>	(1,0)	(1,0)	(1,0)	(1,0)	(1,0)	(1,0)	(1,0)	(1,0)	(1,0)	(1,0)	(1,0)	(1,0)	(1,0)	(1,0)	(1,0)	(1,0)	

L2C -64>	(1,120)	(-4,35)	(-1,57)	(-5,127)	(0,222)	(-3,67)	(10,2)	(-2,41)	(17,1)	(2,3)	(7,2)	(3,3)	(-31,1)	(22,2)	(25,1)	(-37,1)	
L2C -63>	(1,0)	(1,0)	(1,0)	(1,0)	(1,0)	(1,0)	(1,0)	(1,0)	(1,0)	(1,0)	(1,0)	(1,0)	(1,0)	(1,0)	(1,0)	(1,0)	
L2C -62>	(1,0)	(1,0)	(1,0)	(1,0)	(1,0)	(1,0)	(1,0)	(1,0)	(1,0)	(1,0)	(1,0)	(1,0)	(1,0)	(1,0)	(1,0)	(1,0)	
L2C -61>	(1,0)	(1,0)	(1,0)	(1,0)	(1,0)	(1,0)	(1,0)	(1,0)	(1,0)	(1,0)	(1,0)	(1,0)	(1,0)	(1,0)	(1,0)	(1,0)	
L2C -60>	(1,0)	(1,0)	(1,0)	(1,0)	(1,0)	(1,0)	(1,0)	(1,0)	(1,0)	(1,0)	(1,0)	(1,0)	(1,0)	(1,0)	(1,0)	(1,0)	
L2C -59>	(1,0)	(1,0)	(1,0)	(1,0)	(1,0)	(1,0)	(1,0)	(1,0)	(1,0)	(1,0)	(1,0)	(1,0)	(1,0)	(1,0)	(1,0)	(1,0)	
L2C -58>	(1,0)	(1,0)	(1,0)	(1,0)	(1,0)	(1,0)	(1,0)	(1,0)	(1,0)	(1,0)	(1,0)	(1,0)	(1,0)	(1,0)	(1,0)	(1,0)	
L2C -57>	(1,0)	(1,0)	(1,0)	(1,0)	(1,0)	(1,0)	(1,0)	(1,0)	(1,0)	(1,0)	(1,0)	(1,0)	(1,0)	(1,0)	(1,0)	(1,0)	
L2C -56>	(1,0)	(1,0)	(1,0)	(1,0)	(1,0)	(1,0)	(1,0)	(1,0)	(1,0)	(1,0)	(1,0)	(1,0)	(1,0)	(1,0)	(1,0)	(1,0)	
L2C -55>	(1,0)	(1,0)	(1,0)	(1,0)	(1,0)	(1,0)	(1,0)	(1,0)	(1,0)	(1,0)	(1,0)	(1,0)	(1,0)	(1,0)	(1,0)	(1,0)	
L2C -54>	(1,0)	(1,0)	(1,0)	(1,0)	(1,0)	(1,0)	(1,0)	(1,0)	(1,0)	(1,0)	(1,0)	(1,0)	(1,0)	(1,0)	(1,0)	(1,0)	
L2C -53>	(1,0)	(1,0)	(1,0)	(1,0)	(1,0)	(1,0)	(1,0)	(1,0)	(1,0)	(1,0)	(1,0)	(1,0)	(1,0)	(1,0)	(1,0)	(1,0)	
L2C -52>	(1,0)	(1,0)	(1,0)	(1,0)	(1,0)	(1,0)	(1,0)	(1,0)	(1,0)	(1,0)	(1,0)	(1,0)	(1,0)	(1,0)	(1,0)	(1,0)	
L2C -51>	(1,0)	(1,0)	(1,0)	(1,0)	(1,0)	(1,0)	(1,0)	(1,0)	(1,0)	(1,0)	(1,0)	(1,0)	(1,0)	(1,0)	(1,0)	(1,0)	
L2C -50>	(1,0)	(1,0)	(1,0)	(1,0)	(1,0)	(1,0)	(1,0)	(1,0)	(1,0)	(1,0)	(1,0)	(1,0)	(1,0)	(1,0)	(1,0)	(1,0)	
L2C -49>	(1,0)	(1,0)	(1,0)	(1,0)	(1,0)	(1,0)	(1,0)	(1,0)	(1,0)	(1,0)	(1,0)	(1,0)	(1,0)	(1,0)	(1,0)	(1,0)	
L2C -48>	(1,0)	(1,0)	(1,0)	(1,0)	(1,0)	(1,0)	(1,0)	(1,0)	(1,0)	(1,0)	(1,0)	(1,0)	(1,0)	(1,0)	(1,0)	(1,0)	
L2C -47>	(1,0)	(1,0)	(1,0)	(1,0)	(1,0)	(1,0)	(1,0)	(1,0)	(1,0)	(1,0)	(1,0)	(1,0)	(1,0)	(1,0)	(1,0)	(1,0)	
L2C -46>	(1,0)	(1,0)	(1,0)	(1,0)	(1,0)	(1,0)	(1,0)	(1,0)	(1,0)	(1,0)	(1,0)	(1,0)	(1,0)	(1,0)	(1,0)	(1,0)	
L2C -45>	(1,0)	(1,0)	(1,0)	(1,0)	(1,0)	(1,0)	(1,0)	(1,0)	(1,0)	(1,0)	(1,0)	(1,0)	(1,0)	(1,0)	(1,0)	(1,0)	
L2C -44>	(1,0)	(1,0)	(1,0)	(1,0)	(1,0)	(1,0)	(1,0)	(1,0)	(1,0)	(1,0)	(1,0)	(1,0)	(1,0)	(1,0)	(1,0)	(1,0)	
L2C -43>	(1,0)	(1,0)	(1,0)	(1,0)	(1,0)	(1,0)	(1,0)	(1,0)	(1,0)	(1,0)	(1,0)	(1,0)	(1,0)	(1,0)	(1,0)	(1,0)	
L2C -42>	(1,0)	(1,0)	(1,0)	(1,0)	(1,0)	(1,0)	(1,0)	(1,0)	(1,0)	(1,0)	(1,0)	(1,0)	(1,0)	(1,0)	(1,0)	(1,0)	
L2C -41>	(1,0)	(1,0)	(1,0)	(1,0)	(1,0)	(1,0)	(1,0)	(1,0)	(1,0)	(1,0)	(1,0)	(1,0)	(1,0)	(1,0)	(1,0)	(1,0)	
L2C -40>	(1,1)	(1,0)	(1,0)	(1,0)	(1,0)	(1,0)	(1,0)	(1,0)	(1,0)	(1,0)	(1,0)	(1,0)	(1,0)	(1,0)	(1,0)	(1,0)	
L2C -39>	(1,1)	(1,0)	(1,0)	(1,0)	(1,0)	(1,0)	(1,0)	(1,0)	(1,0)	(1,0)	(1,0)	(1,0)	(1,0)	(1,0)	(1,0)	(1,0)	
L2C -38>	(1,0)	(1,0)	(1,0)	(1,0)	(1,0)	(1,0)	(1,0)	(1,0)	(1,0)	(1,0)	(1,0)	(1,0)	(1,0)	(1,0)	(1,0)	(1,0)	
L2C -37>	(1,0)	(1,0)	(1,0)	(1,0)	(1,0)	(1,0)	(1,0)	(1,0)	(1,0)	(1,0)	(1,0)	(1,0)	(1,0)	(1,0)	(1,0)	(1,0)	
L2C -36>	(1,0)	(1,0)	(1,0)	(1,0)	(1,0)	(1,0)	(1,0)	(1,0)	(1,0)	(1,0)	(1,0)	(1,0)	(1,0)	(1,0)	(1,0)	(1,0)	
L2C -35>	(1,1)	(1,0)	(1,0)	(1,0)	(1,0)	(1,0)	(1,0)	(1,0)	(1,0)	(1,0)	(1,0)	(1,0)	(1,0)	(1,0)	(1,0)	(1,0)	
L2C -34>	(1,0)	(1,0)	(1,0)	(1,0)	(1,0)	(1,0)	(1,0)	(1,0)	(1,0)	(1,0)	(1,0)	(1,0)	(1,0)	(1,0)	(1,0)	(1,0)	
L2C -33>	(1,1)	(1,0)	(1,0)	(1,0)	(1,0)	(1,0)	(1,0)	(1,0)	(1,0)	(1,0)	(1,0)	(1,0)	(1,0)	(1,0)	(1,0)	(1,0)	
L2C -32>	(1,1)	(1,0)	(1,0)	(1,0)	(1,0)	(1,0)	(1,0)	(1,0)	(1,0)	(1,0)	(1,0)	(1,0)	(1,0)	(1,0)	(1,0)	(1,0)	
L2C -31>	(1,2)	(1,0)	(1,0)	(1,0)	(1,0)	(1,0)	(1,0)	(1,0)	(1,0)	(1,0)	(1,0)	(1,0)	(1,0)	(1,0)	(1,0)	(1,0)	
L2C -30>	(1,0)	(1,0)	(1,0)	(1,0)	(1,0)	(1,0)	(1,0)	(1,0)	(1,0)	(1,0)	(1,0)	(1,0)	(1,0)	(1,0)	(1,0)	(1,0)	
L2C -29>	(1,0)	(1,0)	(1,0)	(1,0)	(1,0)	(1,0)	(1,0)	(1,0)	(1,0)	(1,0)	(1,0)	(1,0)	(1,0)	(1,0)	(1,0)	(1,0)	
L2C -28>	(1,1)	(1,0)	(1,0)	(1,0)	(1,0)	(1,0)	(1,0)	(1,0)	(1,0)	(1,0)	(1,0)	(1,0)	(1,0)	(1,0)	(1,0)	(1,0)	
L2C -27>	(14,1)	(1,1)	(8,1)	(1,0)	(1,0)	(1,0)	(1,0)	(1,0)	(1,0)	(1,0)	(1,0)	(1,0)	(1,0)	(1,0)	(1,0)	(1,0)	
L2C -26>	(1,1)	(1,0)	(1,0)	(1,0)	(1,0)	(1,0)	(1,0)	(1,0)	(1,0)	(1,0)	(1,0)	(1,0)	(1,0)	(1,0)	(1,0)	(1,0)	
L2C -25>	(1,0)	(1,0)	(1,0)	(1,0)	(1,0)	(1,0)	(1,0)	(1,0)	(1,0)	(1,0)	(1,0)	(1,0)	(1,0)	(1,0)	(1,0)	(1,0)	
L2C -24>	(-31,1)	(1,3)	(1,0)	(1,0)	(1,0)	(1,0)	(1,0)	(1,0)	(1,0)	(1,0)	(1,0)	(1,0)	(1,0)	(1,0)	(1,0)	(1,0)	
L2C -23>	(28,1)	(-5,1)	(1,0)	(1,0)	(1,0)	(1,0)	(1,0)	(1,0)	(1,0)	(1,0)	(1,0)	(1,0)	(1,0)	(1,0)	(1,0)	(1,0)	
L2C -22>	(1,0)	(1,0)	(1,0)	(1,0)	(1,0)	(1,0)	(1,0)	(1,0)	(1,0)	(1,0)	(1,0)	(1,0)	(1,0)	(1,0)	(1,0)	(1,0)	
L2C -21>	(-18,1)	(1,0)	(1,0)	(1,0)	(1,0)	(1,0)	(1,0)	(1,0)	(1,0)	(1,0)	(1,0)	(1,0)	(1,0)	(1,0)	(1,0)	(1,0)	
L2C -20>	(1,0)	(1,0)	(1,0)	(1,0)	(1,0)	(1,0)	(1,0)	(1,0)	(1,0)	(1,0)	(1,0)	(1,0)	(1,0)	(1,0)	(1,0)	(1,0)	
L2C -19>	(1,1)	(1,0)	(1,0)	(1,0)	(1,0)	(1,0)	(1,0)	(1,0)	(1,0)	(1,0)	(1,0)	(1,0)	(1,0)	(1,0)	(1,0)	(1,0)	
L2C -18>	(1,2)	(18,1)	(1,0)	(1,0)	(1,0)	(1,0)	(1,0)	(1,0)	(1,0)	(1,0)	(1,0)	(1,0)	(1,0)	(1,0)	(1,0)	(1,0)	
L2C -17>	(1,0)	(1,0)	(1,0)	(1,0)	(1,0)	(1,0)	(1,0)	(1,0)	(1,0)	(1,0)	(1,0)	(1,0)	(1,0)	(1,0)	(1,0)	(1,0)	
L2C -16>	(1,1)	(-6,1)	(1,0)	(1,0)	(1,0)	(1,0)	(1,0)	(1,0)	(1,0)	(1,0)	(1,0)	(1,0)	(1,0)	(1,0)	(1,0)	(1,0)	
L2C -15>	(1,0)	(1,0)	(1,0)	(1,0)	(1,0)	(1,0)	(1,0)	(1,0)	(1,0)	(1,0)	(1,0)	(1,0)	(1,0)	(1,0)	(1,0)	(1,0)	
L2C -14>	(1,0)	(1,0)	(1,0)	(1,0)	(1,0)	(1,0)	(1,0)	(1,0)	(1,0)	(1,0)	(1,0)	(1,0)	(1,0)	(1,0)	(1,0)	(1,0)	
L2C -13>	(1,2)	(1,0)	(1,0)	(1,0)	(1,0)	(1,0)	(1,0)	(1,0)	(1,0)	(1,0)	(1,0)	(1,0)	(1,0)	(1,0)	(1,0)	(1,0)	
L2C -12>	(-1,1)	(9,1)	(1,0)	(1,0)	(1,0)	(1,0)	(1,0)	(1,0)	(1,0)	(1,0)	(1,0)	(1,0)	(1,0)	(1,0)	(1,0)	(1,0)	
L2C -11>	(1,0)	(1,0)	(1,0)	(1,0)	(1,0)	(1,0)	(1,0)	(1,0)	(1,0)	(1,0)	(1,0)	(1,0)	(1,0)	(1,0)	(1,0)	(1,0)	
L2C -10>	(1,1)	(1,0)	(1,0)	(1,0)	(1,0)	(1,0)	(1,0)	(1,0)	(1,0)	(1,0)	(1,0)	(1,0)	(1,0)	(1,0)	(1,0)	(1,0)	
L2C -9>	(1,0)	(1,0)	(1,0)	(1,0)	(1,0)	(1,0)	(1,0)	(1,0)	(1,0)	(1,0)	(1,0)	(1,0)	(1,0)	(1,0)	(1,0)	(1,0)	
L2C -8>	(1,4)	(1,0)	(1,0)	(1,0)	(1,0)	(1,0)	(1,0)	(1,0)	(1,0)	(1,0)	(1,0)	(1,0)	(1,0)	(1,0)	(1,0)	(1,0)	
L2C -7>	(8,1)	(1,3)	(5,1)	(-4,1)	(1,0)	(1,0)	(1,0)	(1,0)	(1,0)	(1,0)	(1,0)	(1,0)	(1,0)	(1,0)	(1,0)	(1,0)	
L2C -6>	(-16,1)	(3,1)	(1,2)	(4,3)	(6,1)	(1,0)	(1,0)	(1,0)	(1,0)	(1,0)	(1,0)	(1,0)	(1,0)	(1,0)	(1,0)	(1,0)	
L2C -5>	(1,187)	(-1,0)	(2,1)	(3,0)	(0,14)	(29,0)	(4,0)	(-4,0)	(1,0)	(1,0)	(1,0)	(1,0)	(1,0)	(1,0)	(1,0)	(1,0)	
L2C -4>	(9,1)	(3,3)	(1,125)	(12,1)	(8,1)	(-1,1)	(0,12)	(1,0)	(1,0)	(1,0)	(1,0)	(1,0)	(1,0)	(1,0)	(1,0)	(1,0)	
L2C -3>	(1,204)	(2,2)	(0,40)	(8,1)	(1,0)	(1,0)	(1,0)	(1,0)	(1,0)	(1,0)	(1,0)	(1,0)	(1,0)	(1,0)	(1,0)	(1,0)	
L2C -2>	(-1,1)	(28,1)	(1,100)	(-24,1)	(0,18)	(2,1)	(-4,1)	(1,0)	(1,0)	(1,0)	(1,0)	(1,0)	(1,0)	(1,0)	(1,0)	(1,0)	
L2C -1>	(-1,20)	(6,1)	(14,1)	(2,2)	(1,112)	(-33,1)	(-6,3)	(-2,2)	(0,48)	(-5,1)	(4,2)	(-35,1)	(-24,1)	(3,1)	(1,0)	(1,0)	
L2C 0>	(1,75)	(0,164)	(1,0)	(1,0)	(1,0)	(1,0)	(1,0)	(1,0)	(1,0)	(1,0)	(1,0)	(1,0)	(1,0)	(1,0)	(1,0)	(1,0)	
L2C 1>	(1,190)	(-1,8)	(-4,14)	(0,5)	(2,0)	(-3,18)	(-2,4)	(10,0)	(-5,23)	(5,0)	(38,0)	(20,0)	(6,0)	(8,0)	(-8,0)	(3,0)	
L2C 2>	(2,2)	(-31,1)	(1,10)	(-1,7)	(5,1)	(8,1)	(-26,1)	(-2,2)	(-3,2)	(-5,2)	(1,0)	(1,0)	(1,0)	(1,0)	(1,0)	(1,0)	
L2C 3>	(8,1)	(-4,1)	(1,1)	(-5,1)	(-1,1)	(-3,1)	(1,0)	(1,0)	(1,0)	(1,0)	(1,0)	(1,0)	(1,0)	(1,0)	(1,0)	(1,0)	
L2C 4>	(-3,2)	(28,1)	(-1,5)	(5,1)	(1,0)	(1,0)	(1,0)	(1,0)	(1,0)	(1,0)	(1,0)	(1,0)	(1,0)	(1,0)	(1,0)	(1,0)	
L2C 5>	(6,1)	(1,2)	(-4,1)	(-5,1)	(1,0)	(1,0)	(1,0)	(1,0)	(1,0)	(1,0)	(1,0)	(1,0)	(1,0)	(1,0)	(1,0)	(1,0)	
L2C 6>	(-7,1)	(1,2)	(-27,1)	(-28,1)	(1,0)	(1,0)	(1,0)	(1,0)	(1,0)	(1,0)	(1,0)	(1,0)	(1,0)	(1,0)	(1,0)	(1,0)	
L2C 7>	(-6,1)	(1,1)	(1,0)	(1,0)	(1,0)	(1,0)	(1,0)	(1,0)	(1,0)	(1,0)	(1,0)	(1,0)	(1,0)	(1,0)	(1,0)	(1,0)	
L2C 8>	(1,2)	(-7,2)	(2,1)	(-12,1)	(-4,1)	(-16,1)	(1,0)	(1,0)	(1,0)	(1,0)	(1,0)	(1,0)	(1,0)	(1,0)	(1,0)	(1,0)	
L2C 9>	(-8,1)	(6,1)	(-39,1)	(1,0)	(1,0)	(1,0)	(1,0)	(1,0)	(1,0)	(1,0)	(1,0)	(1,0)	(1,0)	(1,0)	(1,0)	(1,0)	
L2C 10>	(1,1)	(-7,1)	(27,1)	(1,0)	(1,0)	(1,0)	(1,0)	(1,0)	(1,0)	(1,0)	(1,0)	(1,0)	(1,0)	(1,0)	(1,0)	(1,0)	
L2C 11>	(-10,1)	(1,0)	(1,0)	(1,0)	(1,0)	(1,0)	(1,0)	(1,0)	(1,0)	(1,0)	(1,0)	(1,0)	(1,0)	(1,0)	(1,0)	(1,0)	
L2C 12>	(1,1)	(-6,1)	(1,0)	(1,0)	(1,0)	(1,0)	(1,0)	(1,0)	(1,0)	(1,0)	(1,0)	(1,0)	(1,0)	(1,0)	(1,0)	(1,0)	
L2C 13>	(-7,1)	(1,0)	(1,0)	(1,0)	(1,0)	(1,0)	(1,0)	(1,0)	(1,0)	(1,0)	(1,0)	(1,0)	(1,0)	(1,0)	(1,0)	(1,0)	
L2C 14>	(2,1)	(4,1)	(1,0)	(1,0)	(1,0)	(1,0)	(1,0)	(1,0)	(1,0)	(1,0)	(1,0)	(1,0)	(1,0)	(1,0)	(1,0)	(1,0)	
L2C 15>	(1,1)	(1,0)	(1,0)	(1,0)	(1,0)	(1,0)	(1,0)	(1,0)	(1,0)	(1,0)	(1,0)	(1,0)	(1,0)	(1,0)	(1,0)	(1,0)	
L2C 16>	(-6,1)	(1,0)	(1,0)	(1,0)	(1,0)	(1,0)	(1,0)	(1,0)	(1,0)	(1,0)	(1,0)	(1,0)	(1,0)	(1,0)	(1,0)	(1,0)	
L2C 17>	(0,1)	(1,0)	(1,0)	(1,0)	(1,0)	(1,0)	(1,0)	(1,0)	(1,0)	(1,0)	(1,0)	(1,0)	(1,0)	(1,0)	(1,0)	(1,0)	
L2C 18>	(16,1)	(1,0)	(1,0)	(1,0)	(1,0)	(1,0)	(1,0)	(1,0)	(1,0)	(1,0)	(1,0)	(1,0)	(1,0)	(1,0)	(1,0)	(1,0)	
L2C 19>	(1,3)	(1,0)	(1,0)	(1,0)	(1,0)	(1,0)	(1,0)	(1,0)	(1,0)	(1,0)	(1,0)	(1,0)	(1,0)	(1,0)	(1,0)	(1,0)	
L2C 20>	(1,2)	(1,0)	(1,0)	(1,0)	(1,0)	(1,0)	(1,0)	(1,0)	(1,0)	(1,0)	(1,0)	(1,0)	(1,0)	(1,0)	(1,0)	(1,0)	
L2C 21>	(1,0)	(1,0)	(1,0)	(1,0)	(1,0)	(1,0)	(1,0)	(1,0)	(1,0)	(1,0)	(1,0)	(1,0)	(1,0)	(1,0)	(1,0)	(1,0)	
L2C 22>	(-8,1)	(2,1)	(1,0)	(1,0)	(1,0)	(1,0)	(1,0)	(1,0)	(1,0)	(1,0)	(1,0)	(1,0)	(1,0)	(1,0)	(1,0)	(1,0)	
L2C 23>	(1,0)	(1,0)	(1,0)	(1,0)	(1,0)	(1,0)	(1,0)	(1,0)	(1,0)	(1,0)	(1,0)	(1,0)	(1,0)	(1,0)	(1,0)	(1,0)	
L2C 24>	(1,0)	(1,0)	(1,0)	(1,0)	(1,0)	(1,0)	(1,0)	(1,0)	(1,0)	(1,0)	(1,0)	(1,0)	(1,0)	(1,0)	(1,0)	(1,0)	
L2C 25>	(-2,1)	(1,0)	(1,0)	(1,0)	(1,0)	(1,0)	(1,0)	(1,0)	(1,0)	(1,0)	(1,0)	(1,0)	(1,0)	(1,0)	(1,0)	(1,0)	
L2C 26>	(-4,1)	(1,0)	(1,0)	(1,0)	(1,0)	(1,0)	(1,0)	(1,0)	(1,0)	(1,0)	(1,0)	(1,0)	(1,0)	(1,0)	(1,0)	(1,0)	
L2C 27>	(2,1)	(1,0)	(1,0)	(1,0)	(1,0)	(1,0)	(1,0)	(1,0)	(1,0)	(1,0)	(1,0)	(1,0)	(1,0)	(1,0)	(1,0)	(1,0)	
L2C 28>	(1,1)	(-1,1)	(1,0)	(1,0)	(1,0)	(1,0)	(1,0)	(1,0)	(1,0)	(1,0)	(1,0)	(1,0)	(1,0)	(1,0)	(1,0)	(1,0)	
L2C 29>	(-23,1)	(1,0)	(1,0)	(1,0)	(1,0)	(1,0)	(1,0)	(1,0)	(1,0)	(1,0)	(1,0)	(1,0)	(1,0)	(1,0)	(1,0)	(1,0)	
L2C 30>	(1,0)	(1,0)	(1,0)	(1,0)	(1,0)	(1,0)	(1,0)	(1,0)	(1,0)	(1,0)	(1,0)	(1,0)	(1,0)	(1,0)	(1,0)	(1,0)	
L2C 31>	(-40,1)	(1,0)	(1,0)	(1,0)	(1,0)	(1,0)	(1,0)	(1,0)	(1,0)	(1,0)	(1,0)	(1,0)	(1,0)	(1,0)	(1,0)	(1,0)	
L2C 32>	(1,0)	(1,0)	(1,0)	(1,0)	(1,0)	(1,0)	(1,0)	(1,0)	(1,0)	(1,0)	(1,0)	(1,0)	(1,0)	(1,0)	(1,0)	(1,0)	
L2C 33>	(1,1)	(1,0)	(1,0)	(1,0)	(1,0)	(1,0)	(1,0)	(1,0)	(1,0)	(1,0)	(1,0)	(1,0)	(1,0)	(1,0)	(1,0)	(1,0)	
L2C 34>	(1,0)	(1,0)	(1,0)	(1,0)	(1,0)	(1,0)	(1,0)	(1,0)	(1,0)	(1,0)	(1,0)	(1,0)	(1,0)	(1,0)	(1,0)	(1,0)	
L2C 35>	(1,0)	(1,0)	(1,0)	(1,0)	(1,0)	(1,0)	(1,0)	(1,0)	(1,0)	(1,0)	(1,0)	(1,0)	(1,0)	(1,0)	(1,0)	(1,0)	
L2C 36>	(1,0)	(1,0)	(1,0)	(1,0)	(1,0)	(1,0)	(1,0)	(1,0)	(1,0)	(1,0)	(1,0)	(1,0)	(1,0)	(1,0)	(1,0)	(1,0)	
L2C 37>	(2,2)	(1,0)	(1,0)	(1,0)	(1,0)	(1,0)	(1,0)	(1,0)	(1,0)	(1,0)	(1,0)	(1,0)	(1,0)	(1,0)	(1,0)	(1,0)	
L2C 38>	(2,1)	(1,0)	(1,0)	(1,0)	(1,0)	(1,0)	(1,0)	(1,0)	(1,0)	(1,0)	(1,0)	(1,0)	(1,0)	(1,0)	(1,0)	(1,0)	
L2C 39>	(1,0)	(1,0)	(1,0)	(1,0)	(1,0)	(1,0)	(1,0)	(1,0)	(1,0)	(1,0)	(1,0)	(1,0)	(1,0)	(1,0)	(1,0)	(1,0)	
L2C 40>	(1,0)	(1,0)	(1,0)	(1,0)	(1,0)	(1,0)	(1,0)	(1,0)	(1,0)	(1,0)	(1,0)	(1,0)	(1,0)	(1,0)	(1,0)	(1,0)	
L2C 41>	(1,0)	(1,0)	(1,0)	(1,0)	(1,0)	(1,0)	(1,0)	(1,0)	(1,0)	(1,0)	(1,0)	(1,0)	(1,0)	(1,0)	(1,0)	(1,0)	
L2C 42>	(1,0)	(1,0)	(1,0)	(1,0)	(1,0)	(1,0)	(1,0)	(1,0)	(1,0)	(1,0)	(1,0)	(1,0)	(1,0)	(1,0)	(1,0)	(1,0)	
L2C 43>	(1,0)	(1,0)	(1,0)	(1,0)	(1,0)	(1,0)	(1,0)	(1,0)	(1,0)	(1,0)	(1,0)	(1,0)	(1,0)	(1,0)	(1,0)	(1,0)	
L2C 44>	(1,0)	(1,0)	(1,0)	(1,0)	(1,0)	(1,0)	(1,0)	(1,0)	(1,0)	(1,0)	(1,0)	(1,0)	(1,0)	(1,0)	(1,0)	(1,0)	
L2C 45>	(1,0)	(1,0)	(1,0)	(1,0)	(1,0)	(1,0)	(1,0)	(1,0)	(1,0)	(1,0)	(1,0)	(1,0)	(1,0)	(1,0)	(1,0)	(1,0)	
L2C 46>	(1,0)	(1,0)	(1,0)	(1,0)	(1,0)	(1,0)	(1,0)	(1,0)	(1,0)	(1,0)	(1,0)	(1,0)	(1,0)	(1,0)	(1,0)	(1,0)	
L2C 47>	(1,0)	(1,0)	(1,0)	(1,0)	(1,0)	(1,0)	(1,0)	(1,0)	(1,0)	(1,0)	(1,0)	(1,0)	(1,0)	(1,0)	(1,0)	(1,0)	
L2C 48>	(1,0)	(1,0)	(1,0)	(1,0)	(1,0)	(1,0)	(1,0)	(1,0)	(1,0)	(1,0)	(1,0)	(1,0)	(1,0)	(1,0)	(1,0)	(1,0)	
L2C 49>	(1,0)	(1,0)	(1,0)	(1,0)	(1,0)	(1,0)	(1,0)	(1,0)	(1,0)	(1,0)	(1,0)	(1,0)	(1,0)	(1,0)	(1,0)	(1,0)	
L2C 50>	(1,0)	(1,0)	(1,0)	(1,0)	(1,0)	(1,0)	(1,0)	(1,0)	(1,0)	(1,0)	(1,0)	(1,0)	(1,0)	(1,0)	(1,0)	(1,0)	
L2C 51>	(1,0)	(1,0)	(1,0)	(1,0)	(1,0)	(1,0)	(1,0)	(1,0)	(1,0)	(1,0)	(1,0)	(1,0)	(1,0)	(1,0)	(1,0)	(1,0)	
L2C 52>	(1,0)	(1,0)	(1,0)	(1,0)	(1,0)	(1,0)	(1,0)	(1,0)	(1,0)	(1,0)	(1,0)	(1,0)	(1,0)	(1,0)	(1,0)	(1,0)	
L2C 53>	(1,0)	(1,0)	(1,0)	(1,0)	(1,0)	(1,0)	(1,0)	(1,0)	(1,0)	(1,0)	(1,0)	(1,0)	(1,0)	(1,0)	(1,0)	(1,0)	
L2C 54>	(1,0)	(1,0)	(1,0)	(1,0)	(1,0)	(1,0)	(1,0)	(1,0)	(1,0)	(1,0)	(1,0)	(1,0)	(1,0)	(1,0)	(1,0)	(1,0)	
L2C 55>	(1,0)	(1,0)	(1,0)	(1,0)	(1,0)	(1,0)	(1,0)	(1,0)	(1,0)	(1,0)	(1,0)	(1,0)	(1,0)	(1,0)	(1,0)	(1,0)	
L2C 56>	(1,0)	(1,0)	(1,0)	(1,0)	(1,0)	(1,0)	(1,0)	(1,0)	(1,0)	(1,0)	(1,0)	(1,0)	(1,0)	(1,0)	(1,0)	(1,0)	
L2C 57>	(1,0)	(1,0)	(1,0)	(1,0)	(1,0)	(1,0)	(1,0)	(1,0)	(1,0)	(1,0)	(1,0)	(1,0)	(1,0)	(1,0)	(1,0)	(1,0)	
L2C 58>	(1,0)	(1,0)	(1,0)	(1,0)	(1,0)	(1,0)	(1,0)	(1,0)	(1,0)	(1,0)	(1,0)	(1,0)	(1,0)	(1,0)	(1,0)	(1,0)	
L2C 59>	(1,0)	(1,0)	(1,0)	(1,0)	(1,0)	(1,0)	(1,0)	(1,0)	(1,0)	(1,0)	(1,0)	(1,0)	(1,0)	(1,0)	(1,0)	(1,0)	
L2C 60>	(1,0)	(1,0)	(1,0)	(1,0)	(1,0)	(1,0)	(1,0)	(1,0)	(1,0)	(1,0)	(1,0)	(1,0)	(1,0)	(1,0)	(1,0)	(1,0)	
L2C 61>	(1,0)	(1,0)	(1,0)	(1,0)	(1,0)	(1,0)	(1,0)	(1,0)	(1,0)	(1,0)	(1,0)	(1,0)	(1,0)	(1,0)	(1,0)	(1,0)	
L2C 62>	(1,0)	(1,0)	(1,0)	(1,0)	(1,0)	(1,0)	(1,0)	(1,0)	(1,0)	(1,0)	(1,0)	(1,0)	(1,0)	(1,0)	(1,0)	(1,0)	
L2C 63>	(0,1)	(1,0)	(1,0)	(1,0)	(1,0)	(1,0)	(1,0)	(1,0)	(1,0)	(1,0)	(1,0)	(1,0)	(1,0)	(1,0)	(1,0)	(1,0)	

DRAM Statistics
 CHANNEL 0
 RQ ROW_BUFFER_HIT:       2479  ROW_BUFFER_MISS:       1299
 DBUS_CONGESTED:       2385
 WQ ROW_BUFFER_HIT:          0  ROW_BUFFER_MISS:          0  FULL:          0

 AVG_CONGESTED_CYCLE: 6
