
*** ChampSim Multicore Out-of-Order Simulator ***

Warmup Instructions: 1000000
Simulation Instructions: 10000000
Number of CPUs: 1
LLC sets: 2048
LLC ways: 16
Off-chip DRAM Size: 4096 MB Channels: 1 Width: 64-bit Data Rate: 3200 MT/s

CPU 0 runs /home/virtualcse/Data-Prefetching/ChampSim/dpc3_traces/657.xz_s-2302B.champsimtrace.xz
Ultra pref. initializing...
Ultra pref. initialized
Ultra pref. initializing...
Ultra pref. initialized

Warmup complete CPU 0 instructions: 1000003 cycles: 321674 (Simulation time: 0 hr 0 min 2 sec) 

Heartbeat CPU 0 instructions: 10000001 cycles: 9390839 heartbeat IPC: 1.06487 cumulative IPC: 0.992373 (Simulation time: 0 hr 0 min 13 sec) 
Finished CPU 0 instructions: 10000000 cycles: 10035676 cumulative IPC: 0.996445 (Simulation time: 0 hr 0 min 14 sec) 

CPU 0 Branch Prediction Accuracy: 89.4991% MPKI: 13.4766 Average ROB Occupancy at Mispredict: 57.1293

ChampSim completed all CPUs

Region of Interest Statistics

CPU 0 cumulative IPC: 0.996445 instructions: 10000000 cycles: 10035676
L1D TOTAL     ACCESS:    2954965  HIT:    2805906  MISS:     149059
L1D LOAD      ACCESS:    1384984  HIT:    1323922  MISS:      61062
L1D RFO       ACCESS:     746302  HIT:     737842  MISS:       8460
L1D PREFETCH  ACCESS:     823679  HIT:     744142  MISS:      79537
L1D WRITEBACK ACCESS:          0  HIT:          0  MISS:          0
L1D PREFETCH  REQUESTED:    6655040  ISSUED:    6109001  USEFUL:       7933  USELESS:      77065
L1D AVERAGE MISS LATENCY: 90.4413 cycles
L1I TOTAL     ACCESS:     546225  HIT:     546125  MISS:        100
L1I LOAD      ACCESS:     546225  HIT:     546125  MISS:        100
L1I RFO       ACCESS:          0  HIT:          0  MISS:          0
L1I PREFETCH  ACCESS:          0  HIT:          0  MISS:          0
L1I WRITEBACK ACCESS:          0  HIT:          0  MISS:          0
L1I PREFETCH  REQUESTED:          0  ISSUED:          0  USEFUL:          0  USELESS:          0
L1I AVERAGE MISS LATENCY: 99.53 cycles
L2C TOTAL     ACCESS:     714546  HIT:     408919  MISS:     305627
L2C LOAD      ACCESS:      60958  HIT:      26584  MISS:      34374
L2C RFO       ACCESS:       8438  HIT:       5389  MISS:       3049
L2C PREFETCH  ACCESS:     595940  HIT:     328123  MISS:     267817
L2C WRITEBACK ACCESS:      49210  HIT:      48823  MISS:        387
L2C PREFETCH  REQUESTED:    1538317  ISSUED:    1112613  USEFUL:      12040  USELESS:     278454
L2C AVERAGE MISS LATENCY: 158.924 cycles
LLC TOTAL     ACCESS:     340712  HIT:     168109  MISS:     172603
LLC LOAD      ACCESS:      34322  HIT:      16158  MISS:      18164
LLC RFO       ACCESS:       3047  HIT:       1929  MISS:       1118
LLC PREFETCH  ACCESS:     267871  HIT:     115189  MISS:     152682
LLC WRITEBACK ACCESS:      35472  HIT:      34833  MISS:        639
LLC PREFETCH  REQUESTED:          0  ISSUED:          0  USEFUL:       7679  USELESS:     143812
LLC AVERAGE MISS LATENCY: 219.479 cycles
Major fault: 0 Minor fault: 4359

L1D -512>	(2,2)	(1,73)	(-1,2)	(0,105)	(-248,1)	(-317,1)	(-114,1)	(-154,1)	(-96,1)	(-106,1)	(131,1)	(-23,1)	(165,1)	(-142,1)	(-16,1)	(256,1)	
L1D -511>	(1,1)	(1,0)	(1,0)	(1,0)	(1,0)	(1,0)	(1,0)	(1,0)	(1,0)	(1,0)	(1,0)	(1,0)	(1,0)	(1,0)	(1,0)	(1,0)	
L1D -510>	(0,1)	(1,0)	(1,0)	(1,0)	(1,0)	(1,0)	(1,0)	(1,0)	(1,0)	(1,0)	(1,0)	(1,0)	(1,0)	(1,0)	(1,0)	(1,0)	
L1D -509>	(1,1)	(1,0)	(1,0)	(1,0)	(1,0)	(1,0)	(1,0)	(1,0)	(1,0)	(1,0)	(1,0)	(1,0)	(1,0)	(1,0)	(1,0)	(1,0)	
L1D -508>	(1,1)	(1,0)	(1,0)	(1,0)	(1,0)	(1,0)	(1,0)	(1,0)	(1,0)	(1,0)	(1,0)	(1,0)	(1,0)	(1,0)	(1,0)	(1,0)	
L1D -507>	(1,0)	(1,0)	(1,0)	(1,0)	(1,0)	(1,0)	(1,0)	(1,0)	(1,0)	(1,0)	(1,0)	(1,0)	(1,0)	(1,0)	(1,0)	(1,0)	
L1D -506>	(64,1)	(1,0)	(1,0)	(1,0)	(1,0)	(1,0)	(1,0)	(1,0)	(1,0)	(1,0)	(1,0)	(1,0)	(1,0)	(1,0)	(1,0)	(1,0)	
L1D -505>	(0,1)	(1,0)	(1,0)	(1,0)	(1,0)	(1,0)	(1,0)	(1,0)	(1,0)	(1,0)	(1,0)	(1,0)	(1,0)	(1,0)	(1,0)	(1,0)	
L1D -504>	(211,1)	(1,1)	(1,0)	(1,0)	(1,0)	(1,0)	(1,0)	(1,0)	(1,0)	(1,0)	(1,0)	(1,0)	(1,0)	(1,0)	(1,0)	(1,0)	
L1D -503>	(1,0)	(1,0)	(1,0)	(1,0)	(1,0)	(1,0)	(1,0)	(1,0)	(1,0)	(1,0)	(1,0)	(1,0)	(1,0)	(1,0)	(1,0)	(1,0)	
L1D -502>	(1,1)	(1,0)	(1,0)	(1,0)	(1,0)	(1,0)	(1,0)	(1,0)	(1,0)	(1,0)	(1,0)	(1,0)	(1,0)	(1,0)	(1,0)	(1,0)	
L1D -501>	(42,1)	(5,1)	(1,2)	(0,1)	(1,0)	(1,0)	(1,0)	(1,0)	(1,0)	(1,0)	(1,0)	(1,0)	(1,0)	(1,0)	(1,0)	(1,0)	
L1D -500>	(1,1)	(502,1)	(1,0)	(1,0)	(1,0)	(1,0)	(1,0)	(1,0)	(1,0)	(1,0)	(1,0)	(1,0)	(1,0)	(1,0)	(1,0)	(1,0)	
L1D -499>	(1,1)	(487,1)	(211,1)	(1,0)	(1,0)	(1,0)	(1,0)	(1,0)	(1,0)	(1,0)	(1,0)	(1,0)	(1,0)	(1,0)	(1,0)	(1,0)	
L1D -498>	(498,3)	(0,2)	(1,0)	(1,0)	(1,0)	(1,0)	(1,0)	(1,0)	(1,0)	(1,0)	(1,0)	(1,0)	(1,0)	(1,0)	(1,0)	(1,0)	
L1D -497>	(497,2)	(291,1)	(203,1)	(1,0)	(1,0)	(1,0)	(1,0)	(1,0)	(1,0)	(1,0)	(1,0)	(1,0)	(1,0)	(1,0)	(1,0)	(1,0)	
L1D -496>	(502,1)	(159,1)	(1,4)	(1,0)	(1,0)	(1,0)	(1,0)	(1,0)	(1,0)	(1,0)	(1,0)	(1,0)	(1,0)	(1,0)	(1,0)	(1,0)	
L1D -495>	(0,2)	(1,1)	(440,1)	(494,1)	(499,1)	(1,0)	(1,0)	(1,0)	(1,0)	(1,0)	(1,0)	(1,0)	(1,0)	(1,0)	(1,0)	(1,0)	
L1D -494>	(1,0)	(1,0)	(1,0)	(1,0)	(1,0)	(1,0)	(1,0)	(1,0)	(1,0)	(1,0)	(1,0)	(1,0)	(1,0)	(1,0)	(1,0)	(1,0)	
L1D -493>	(64,2)	(202,1)	(1,0)	(1,0)	(1,0)	(1,0)	(1,0)	(1,0)	(1,0)	(1,0)	(1,0)	(1,0)	(1,0)	(1,0)	(1,0)	(1,0)	
L1D -492>	(491,1)	(492,2)	(0,1)	(1,0)	(1,0)	(1,0)	(1,0)	(1,0)	(1,0)	(1,0)	(1,0)	(1,0)	(1,0)	(1,0)	(1,0)	(1,0)	
L1D -491>	(492,1)	(491,1)	(0,4)	(207,1)	(1,0)	(1,0)	(1,0)	(1,0)	(1,0)	(1,0)	(1,0)	(1,0)	(1,0)	(1,0)	(1,0)	(1,0)	
L1D -490>	(395,1)	(57,1)	(0,2)	(5,1)	(1,0)	(1,0)	(1,0)	(1,0)	(1,0)	(1,0)	(1,0)	(1,0)	(1,0)	(1,0)	(1,0)	(1,0)	
L1D -489>	(35,1)	(128,1)	(1,0)	(1,0)	(1,0)	(1,0)	(1,0)	(1,0)	(1,0)	(1,0)	(1,0)	(1,0)	(1,0)	(1,0)	(1,0)	(1,0)	
L1D -488>	(332,1)	(1,1)	(0,1)	(493,1)	(1,0)	(1,0)	(1,0)	(1,0)	(1,0)	(1,0)	(1,0)	(1,0)	(1,0)	(1,0)	(1,0)	(1,0)	
L1D -487>	(487,2)	(1,2)	(493,1)	(1,0)	(1,0)	(1,0)	(1,0)	(1,0)	(1,0)	(1,0)	(1,0)	(1,0)	(1,0)	(1,0)	(1,0)	(1,0)	
L1D -486>	(254,1)	(479,1)	(0,3)	(492,1)	(1,1)	(7,1)	(261,1)	(415,1)	(61,1)	(64,1)	(1,0)	(1,0)	(1,0)	(1,0)	(1,0)	(1,0)	
L1D -485>	(1,2)	(0,2)	(1,0)	(1,0)	(1,0)	(1,0)	(1,0)	(1,0)	(1,0)	(1,0)	(1,0)	(1,0)	(1,0)	(1,0)	(1,0)	(1,0)	
L1D -484>	(0,1)	(439,1)	(277,1)	(193,1)	(1,0)	(1,0)	(1,0)	(1,0)	(1,0)	(1,0)	(1,0)	(1,0)	(1,0)	(1,0)	(1,0)	(1,0)	
L1D -483>	(64,1)	(114,1)	(313,1)	(0,3)	(1,0)	(1,0)	(1,0)	(1,0)	(1,0)	(1,0)	(1,0)	(1,0)	(1,0)	(1,0)	(1,0)	(1,0)	
L1D -482>	(1,1)	(0,1)	(356,1)	(487,1)	(320,1)	(1,0)	(1,0)	(1,0)	(1,0)	(1,0)	(1,0)	(1,0)	(1,0)	(1,0)	(1,0)	(1,0)	
L1D -481>	(473,1)	(486,1)	(-18,1)	(1,0)	(1,0)	(1,0)	(1,0)	(1,0)	(1,0)	(1,0)	(1,0)	(1,0)	(1,0)	(1,0)	(1,0)	(1,0)	
L1D -480>	(0,7)	(82,1)	(1,1)	(1,0)	(1,0)	(1,0)	(1,0)	(1,0)	(1,0)	(1,0)	(1,0)	(1,0)	(1,0)	(1,0)	(1,0)	(1,0)	
L1D -479>	(0,3)	(256,1)	(1,1)	(347,1)	(64,1)	(1,0)	(1,0)	(1,0)	(1,0)	(1,0)	(1,0)	(1,0)	(1,0)	(1,0)	(1,0)	(1,0)	
L1D -478>	(479,4)	(0,1)	(1,2)	(242,1)	(1,0)	(1,0)	(1,0)	(1,0)	(1,0)	(1,0)	(1,0)	(1,0)	(1,0)	(1,0)	(1,0)	(1,0)	
L1D -477>	(0,3)	(168,1)	(64,1)	(1,0)	(1,0)	(1,0)	(1,0)	(1,0)	(1,0)	(1,0)	(1,0)	(1,0)	(1,0)	(1,0)	(1,0)	(1,0)	
L1D -476>	(475,1)	(353,1)	(316,1)	(0,1)	(1,1)	(446,1)	(1,0)	(1,0)	(1,0)	(1,0)	(1,0)	(1,0)	(1,0)	(1,0)	(1,0)	(1,0)	
L1D -475>	(1,4)	(475,3)	(476,2)	(492,1)	(486,2)	(328,1)	(46,1)	(21,1)	(366,1)	(64,1)	(1,0)	(1,0)	(1,0)	(1,0)	(1,0)	(1,0)	
L1D -474>	(379,1)	(0,2)	(1,0)	(1,0)	(1,0)	(1,0)	(1,0)	(1,0)	(1,0)	(1,0)	(1,0)	(1,0)	(1,0)	(1,0)	(1,0)	(1,0)	
L1D -473>	(493,1)	(0,5)	(473,1)	(1,2)	(140,1)	(36,1)	(1,0)	(1,0)	(1,0)	(1,0)	(1,0)	(1,0)	(1,0)	(1,0)	(1,0)	(1,0)	
L1D -472>	(0,4)	(472,3)	(1,2)	(7,1)	(1,0)	(1,0)	(1,0)	(1,0)	(1,0)	(1,0)	(1,0)	(1,0)	(1,0)	(1,0)	(1,0)	(1,0)	
L1D -471>	(-1,1)	(471,1)	(448,1)	(200,1)	(0,1)	(1,1)	(1,0)	(1,0)	(1,0)	(1,0)	(1,0)	(1,0)	(1,0)	(1,0)	(1,0)	(1,0)	
L1D -470>	(470,1)	(469,1)	(360,1)	(0,1)	(33,1)	(1,1)	(1,0)	(1,0)	(1,0)	(1,0)	(1,0)	(1,0)	(1,0)	(1,0)	(1,0)	(1,0)	
L1D -469>	(0,3)	(469,2)	(1,1)	(-25,1)	(169,1)	(64,3)	(457,1)	(456,1)	(370,1)	(1,0)	(1,0)	(1,0)	(1,0)	(1,0)	(1,0)	(1,0)	
L1D -468>	(0,6)	(1,2)	(-24,1)	(332,1)	(455,1)	(189,1)	(473,1)	(1,0)	(1,0)	(1,0)	(1,0)	(1,0)	(1,0)	(1,0)	(1,0)	(1,0)	
L1D -467>	(470,1)	(20,1)	(0,6)	(342,1)	(18,1)	(1,1)	(338,1)	(1,0)	(1,0)	(1,0)	(1,0)	(1,0)	(1,0)	(1,0)	(1,0)	(1,0)	
L1D -466>	(461,1)	(0,1)	(125,1)	(64,4)	(149,1)	(472,1)	(156,1)	(1,1)	(100,1)	(466,1)	(1,0)	(1,0)	(1,0)	(1,0)	(1,0)	(1,0)	
L1D -465>	(0,5)	(471,1)	(1,5)	(419,1)	(469,2)	(464,1)	(1,0)	(1,0)	(1,0)	(1,0)	(1,0)	(1,0)	(1,0)	(1,0)	(1,0)	(1,0)	
L1D -464>	(1,4)	(0,3)	(90,1)	(421,1)	(93,1)	(176,1)	(64,1)	(387,1)	(464,1)	(1,0)	(1,0)	(1,0)	(1,0)	(1,0)	(1,0)	(1,0)	
L1D -463>	(64,1)	(51,1)	(1,1)	(463,1)	(464,1)	(1,0)	(1,0)	(1,0)	(1,0)	(1,0)	(1,0)	(1,0)	(1,0)	(1,0)	(1,0)	(1,0)	
L1D -462>	(0,4)	(434,1)	(1,4)	(1,0)	(1,0)	(1,0)	(1,0)	(1,0)	(1,0)	(1,0)	(1,0)	(1,0)	(1,0)	(1,0)	(1,0)	(1,0)	
L1D -461>	(466,2)	(0,3)	(449,1)	(64,1)	(1,1)	(1,0)	(1,0)	(1,0)	(1,0)	(1,0)	(1,0)	(1,0)	(1,0)	(1,0)	(1,0)	(1,0)	
L1D -460>	(254,1)	(0,4)	(-1,1)	(1,2)	(380,1)	(1,0)	(1,0)	(1,0)	(1,0)	(1,0)	(1,0)	(1,0)	(1,0)	(1,0)	(1,0)	(1,0)	
L1D -459>	(457,1)	(1,2)	(0,10)	(460,2)	(459,6)	(475,1)	(1,0)	(1,0)	(1,0)	(1,0)	(1,0)	(1,0)	(1,0)	(1,0)	(1,0)	(1,0)	
L1D -458>	(464,1)	(458,2)	(0,5)	(459,6)	(208,1)	(64,2)	(409,1)	(91,1)	(225,2)	(1,1)	(478,1)	(1,0)	(1,0)	(1,0)	(1,0)	(1,0)	
L1D -457>	(457,14)	(123,1)	(405,1)	(406,1)	(458,1)	(116,1)	(0,1)	(1,1)	(5,1)	(35,1)	(460,1)	(133,1)	(462,2)	(64,1)	(1,0)	(1,0)	
L1D -456>	(0,7)	(456,5)	(457,6)	(20,1)	(1,2)	(11,1)	(137,1)	(88,1)	(235,1)	(211,1)	(-20,1)	(453,1)	(1,0)	(1,0)	(1,0)	(1,0)	
L1D -455>	(461,2)	(163,1)	(0,3)	(190,1)	(456,1)	(460,1)	(122,1)	(452,1)	(1,0)	(1,0)	(1,0)	(1,0)	(1,0)	(1,0)	(1,0)	(1,0)	
L1D -454>	(383,1)	(377,1)	(453,3)	(0,8)	(392,1)	(-3,1)	(1,0)	(1,0)	(1,0)	(1,0)	(1,0)	(1,0)	(1,0)	(1,0)	(1,0)	(1,0)	
L1D -453>	(454,1)	(453,4)	(1,1)	(0,7)	(452,1)	(1,0)	(1,0)	(1,0)	(1,0)	(1,0)	(1,0)	(1,0)	(1,0)	(1,0)	(1,0)	(1,0)	
L1D -452>	(84,1)	(-5,1)	(344,2)	(453,4)	(0,3)	(1,2)	(130,1)	(33,1)	(23,1)	(452,5)	(1,0)	(1,0)	(1,0)	(1,0)	(1,0)	(1,0)	
L1D -451>	(0,1)	(456,1)	(1,3)	(405,1)	(301,1)	(451,1)	(1,0)	(1,0)	(1,0)	(1,0)	(1,0)	(1,0)	(1,0)	(1,0)	(1,0)	(1,0)	
L1D -450>	(1,8)	(121,1)	(455,2)	(96,1)	(0,1)	(1,0)	(1,0)	(1,0)	(1,0)	(1,0)	(1,0)	(1,0)	(1,0)	(1,0)	(1,0)	(1,0)	
L1D -449>	(155,1)	(21,1)	(0,2)	(1,1)	(75,1)	(455,1)	(412,1)	(1,0)	(1,0)	(1,0)	(1,0)	(1,0)	(1,0)	(1,0)	(1,0)	(1,0)	
L1D -448>	(0,2)	(1,2)	(454,1)	(161,1)	(427,1)	(1,0)	(1,0)	(1,0)	(1,0)	(1,0)	(1,0)	(1,0)	(1,0)	(1,0)	(1,0)	(1,0)	
L1D -447>	(477,1)	(64,2)	(-14,1)	(1,2)	(340,1)	(447,2)	(1,0)	(1,0)	(1,0)	(1,0)	(1,0)	(1,0)	(1,0)	(1,0)	(1,0)	(1,0)	
L1D -446>	(1,1)	(0,1)	(155,1)	(1,0)	(1,0)	(1,0)	(1,0)	(1,0)	(1,0)	(1,0)	(1,0)	(1,0)	(1,0)	(1,0)	(1,0)	(1,0)	
L1D -445>	(0,5)	(1,1)	(451,1)	(459,1)	(167,1)	(372,1)	(418,1)	(445,2)	(1,0)	(1,0)	(1,0)	(1,0)	(1,0)	(1,0)	(1,0)	(1,0)	
L1D -444>	(1,2)	(416,1)	(0,4)	(444,1)	(252,1)	(-9,1)	(153,1)	(1,0)	(1,0)	(1,0)	(1,0)	(1,0)	(1,0)	(1,0)	(1,0)	(1,0)	
L1D -443>	(178,1)	(0,3)	(-14,1)	(1,3)	(444,1)	(442,1)	(448,1)	(443,3)	(-18,1)	(311,2)	(346,1)	(1,0)	(1,0)	(1,0)	(1,0)	(1,0)	
L1D -442>	(447,1)	(441,1)	(392,1)	(394,1)	(442,4)	(0,1)	(429,1)	(1,1)	(448,1)	(417,1)	(1,0)	(1,0)	(1,0)	(1,0)	(1,0)	(1,0)	
L1D -441>	(446,2)	(471,1)	(441,10)	(0,1)	(316,5)	(315,2)	(116,1)	(206,1)	(1,2)	(454,1)	(107,1)	(291,1)	(336,1)	(255,1)	(1,0)	(1,0)	
L1D -440>	(0,2)	(1,6)	(440,3)	(441,2)	(315,2)	(405,1)	(1,0)	(1,0)	(1,0)	(1,0)	(1,0)	(1,0)	(1,0)	(1,0)	(1,0)	(1,0)	
L1D -439>	(0,1)	(-6,1)	(436,1)	(212,1)	(246,1)	(1,2)	(-50,1)	(-58,1)	(439,1)	(82,1)	(1,0)	(1,0)	(1,0)	(1,0)	(1,0)	(1,0)	
L1D -438>	(0,9)	(1,6)	(443,1)	(438,15)	(433,1)	(437,1)	(439,1)	(58,1)	(1,0)	(1,0)	(1,0)	(1,0)	(1,0)	(1,0)	(1,0)	(1,0)	
L1D -437>	(436,2)	(437,9)	(0,5)	(1,1)	(-54,1)	(30,1)	(146,1)	(16,1)	(443,1)	(128,1)	(438,1)	(442,1)	(1,0)	(1,0)	(1,0)	(1,0)	
L1D -436>	(1,3)	(430,2)	(436,4)	(437,2)	(366,1)	(-15,1)	(0,2)	(16,1)	(38,1)	(356,1)	(1,0)	(1,0)	(1,0)	(1,0)	(1,0)	(1,0)	
L1D -435>	(1,4)	(0,2)	(436,2)	(128,1)	(423,1)	(159,1)	(114,1)	(-30,1)	(441,1)	(1,0)	(1,0)	(1,0)	(1,0)	(1,0)	(1,0)	(1,0)	
L1D -434>	(1,3)	(434,1)	(406,1)	(0,3)	(142,1)	(435,1)	(1,0)	(1,0)	(1,0)	(1,0)	(1,0)	(1,0)	(1,0)	(1,0)	(1,0)	(1,0)	
L1D -433>	(0,6)	(1,3)	(200,1)	(233,1)	(353,1)	(189,1)	(1,0)	(1,0)	(1,0)	(1,0)	(1,0)	(1,0)	(1,0)	(1,0)	(1,0)	(1,0)	
L1D -432>	(1,6)	(0,8)	(2,1)	(1,0)	(1,0)	(1,0)	(1,0)	(1,0)	(1,0)	(1,0)	(1,0)	(1,0)	(1,0)	(1,0)	(1,0)	(1,0)	
L1D -431>	(432,1)	(424,1)	(0,1)	(391,1)	(1,2)	(431,1)	(430,1)	(426,1)	(370,1)	(202,1)	(331,1)	(1,0)	(1,0)	(1,0)	(1,0)	(1,0)	
L1D -430>	(0,2)	(-14,1)	(254,1)	(448,2)	(280,1)	(1,1)	(429,1)	(430,1)	(397,1)	(1,0)	(1,0)	(1,0)	(1,0)	(1,0)	(1,0)	(1,0)	
L1D -429>	(0,5)	(136,1)	(429,2)	(425,1)	(260,1)	(430,13)	(82,1)	(318,1)	(1,1)	(435,1)	(64,1)	(293,1)	(1,0)	(1,0)	(1,0)	(1,0)	
L1D -428>	(423,1)	(0,3)	(1,3)	(428,3)	(64,2)	(70,1)	(18,1)	(307,1)	(234,1)	(387,1)	(1,0)	(1,0)	(1,0)	(1,0)	(1,0)	(1,0)	
L1D -427>	(0,9)	(64,1)	(1,4)	(378,1)	(243,1)	(225,1)	(375,1)	(427,2)	(139,1)	(1,0)	(1,0)	(1,0)	(1,0)	(1,0)	(1,0)	(1,0)	
L1D -426>	(418,1)	(419,1)	(426,5)	(0,13)	(64,2)	(1,3)	(134,1)	(425,2)	(465,1)	(-52,1)	(1,0)	(1,0)	(1,0)	(1,0)	(1,0)	(1,0)	
L1D -425>	(0,3)	(425,5)	(426,2)	(424,3)	(55,1)	(1,4)	(11,1)	(-11,1)	(-33,1)	(132,1)	(64,1)	(1,0)	(1,0)	(1,0)	(1,0)	(1,0)	
L1D -424>	(0,6)	(1,4)	(425,3)	(127,1)	(416,1)	(288,1)	(429,1)	(358,1)	(-32,2)	(133,1)	(-15,1)	(363,1)	(1,0)	(1,0)	(1,0)	(1,0)	
L1D -423>	(189,1)	(423,10)	(421,1)	(9,1)	(-44,1)	(27,1)	(1,4)	(0,2)	(335,1)	(58,1)	(64,1)	(246,1)	(-24,1)	(429,1)	(1,0)	(1,0)	
L1D -422>	(1,5)	(-2,1)	(55,1)	(0,7)	(422,9)	(423,2)	(421,1)	(-33,1)	(428,1)	(415,1)	(-32,1)	(12,1)	(374,1)	(384,1)	(208,1)	(1,0)	
L1D -421>	(421,10)	(430,1)	(0,8)	(1,1)	(344,1)	(340,1)	(413,1)	(419,1)	(307,1)	(427,2)	(-1,1)	(17,1)	(63,1)	(-33,1)	(420,1)	(1,0)	
L1D -420>	(425,1)	(421,4)	(0,4)	(420,4)	(64,2)	(1,5)	(301,1)	(410,1)	(422,1)	(-42,1)	(292,1)	(39,1)	(401,1)	(129,1)	(175,1)	(1,0)	
L1D -419>	(489,1)	(1,6)	(377,1)	(0,9)	(347,1)	(449,1)	(342,1)	(419,1)	(129,1)	(420,2)	(181,1)	(1,0)	(1,0)	(1,0)	(1,0)	(1,0)	
L1D -418>	(0,5)	(1,2)	(43,1)	(321,1)	(415,1)	(64,1)	(-19,2)	(418,1)	(76,1)	(7,1)	(424,1)	(419,4)	(1,0)	(1,0)	(1,0)	(1,0)	
L1D -417>	(419,1)	(418,4)	(141,1)	(64,1)	(0,7)	(417,6)	(343,1)	(422,1)	(1,4)	(149,1)	(126,1)	(410,1)	(269,1)	(-42,1)	(438,1)	(381,1)	
L1D -416>	(416,11)	(415,2)	(0,12)	(1,7)	(110,1)	(196,1)	(55,1)	(94,1)	(-24,1)	(35,1)	(421,1)	(388,1)	(162,1)	(311,1)	(409,1)	(64,1)	
L1D -415>	(0,18)	(415,35)	(416,1)	(-77,1)	(420,3)	(1,3)	(421,1)	(-76,1)	(-51,1)	(354,1)	(1,0)	(1,0)	(1,0)	(1,0)	(1,0)	(1,0)	
L1D -414>	(1,10)	(420,1)	(81,2)	(0,4)	(49,1)	(413,1)	(414,3)	(301,1)	(-73,1)	(-1,1)	(1,0)	(1,0)	(1,0)	(1,0)	(1,0)	(1,0)	
L1D -413>	(400,1)	(239,1)	(412,1)	(1,5)	(390,1)	(0,5)	(413,2)	(429,1)	(292,1)	(185,1)	(414,1)	(190,1)	(418,1)	(1,0)	(1,0)	(1,0)	
L1D -412>	(228,1)	(0,12)	(411,7)	(1,4)	(412,12)	(70,1)	(399,1)	(376,1)	(165,1)	(-8,1)	(1,0)	(1,0)	(1,0)	(1,0)	(1,0)	(1,0)	
L1D -411>	(1,4)	(0,8)	(411,7)	(361,1)	(412,6)	(397,1)	(26,1)	(4,1)	(97,1)	(442,1)	(452,1)	(295,1)	(414,1)	(263,1)	(1,0)	(1,0)	
L1D -410>	(0,7)	(1,4)	(410,2)	(413,1)	(411,9)	(94,1)	(59,1)	(402,1)	(62,1)	(283,1)	(416,1)	(405,1)	(408,1)	(-1,1)	(1,0)	(1,0)	
L1D -409>	(2,1)	(1,7)	(0,9)	(279,1)	(104,1)	(408,1)	(130,1)	(405,1)	(369,1)	(291,1)	(296,1)	(137,1)	(410,1)	(414,1)	(238,1)	(64,1)	
L1D -408>	(0,18)	(1,10)	(408,6)	(116,1)	(-1,5)	(64,2)	(153,1)	(8,1)	(409,1)	(407,1)	(414,1)	(288,1)	(137,1)	(413,2)	(167,1)	(1,0)	
L1D -407>	(407,7)	(408,2)	(13,1)	(-1,9)	(376,1)	(-35,1)	(0,14)	(394,1)	(344,1)	(390,1)	(7,1)	(1,2)	(5,1)	(361,1)	(406,1)	(143,1)	
L1D -406>	(0,8)	(1,6)	(407,1)	(56,1)	(412,1)	(-5,1)	(250,1)	(289,1)	(392,1)	(395,1)	(305,1)	(22,1)	(402,1)	(293,1)	(-36,1)	(302,1)	
L1D -405>	(135,1)	(405,7)	(0,5)	(1,7)	(119,1)	(415,1)	(-3,1)	(-41,1)	(-30,1)	(249,1)	(255,1)	(355,1)	(-74,1)	(-36,1)	(1,0)	(1,0)	
L1D -404>	(404,10)	(405,5)	(0,8)	(393,1)	(-24,2)	(1,4)	(64,1)	(399,1)	(409,1)	(358,1)	(227,1)	(-36,1)	(74,1)	(489,1)	(1,0)	(1,0)	
L1D -403>	(424,1)	(237,1)	(1,6)	(0,4)	(408,1)	(396,2)	(-15,1)	(403,1)	(-37,1)	(1,0)	(1,0)	(1,0)	(1,0)	(1,0)	(1,0)	(1,0)	
L1D -402>	(403,2)	(157,1)	(0,12)	(1,4)	(402,1)	(344,1)	(315,1)	(407,3)	(64,2)	(121,1)	(1,0)	(1,0)	(1,0)	(1,0)	(1,0)	(1,0)	
L1D -401>	(-52,2)	(125,1)	(400,3)	(1,4)	(0,12)	(388,1)	(64,1)	(314,1)	(406,1)	(401,8)	(402,1)	(-45,1)	(339,1)	(76,1)	(407,2)	(166,1)	
L1D -400>	(0,11)	(399,4)	(161,1)	(397,1)	(5,1)	(366,1)	(1,3)	(401,3)	(140,1)	(419,1)	(31,1)	(406,1)	(400,1)	(1,0)	(1,0)	(1,0)	
L1D -399>	(425,1)	(90,1)	(255,1)	(399,39)	(400,7)	(0,9)	(1,4)	(297,1)	(301,1)	(-57,1)	(62,1)	(405,1)	(1,0)	(1,0)	(1,0)	(1,0)	
L1D -398>	(0,4)	(399,6)	(1,4)	(398,8)	(234,1)	(195,1)	(64,1)	(187,1)	(404,1)	(351,1)	(36,1)	(1,0)	(1,0)	(1,0)	(1,0)	(1,0)	
L1D -397>	(-1,1)	(64,1)	(402,2)	(452,1)	(0,6)	(1,8)	(276,1)	(48,1)	(214,1)	(377,1)	(306,1)	(50,1)	(2,1)	(89,1)	(114,1)	(263,1)	
L1D -396>	(0,12)	(401,3)	(402,6)	(396,3)	(257,1)	(382,1)	(1,8)	(322,1)	(31,1)	(353,1)	(293,1)	(-52,1)	(-82,1)	(-62,1)	(64,1)	(1,0)	
L1D -395>	(395,4)	(1,10)	(0,7)	(394,2)	(350,1)	(384,1)	(401,1)	(396,1)	(142,1)	(392,1)	(194,1)	(252,1)	(-1,1)	(-32,1)	(98,1)	(1,0)	
L1D -394>	(1,7)	(0,7)	(394,17)	(395,5)	(393,2)	(399,2)	(380,1)	(245,2)	(386,1)	(312,1)	(375,1)	(229,1)	(230,1)	(257,1)	(48,1)	(90,1)	
L1D -393>	(1,8)	(0,3)	(-9,1)	(17,1)	(295,1)	(398,1)	(-25,1)	(-32,1)	(1,0)	(1,0)	(1,0)	(1,0)	(1,0)	(1,0)	(1,0)	(1,0)	
L1D -392>	(398,1)	(1,5)	(381,1)	(393,1)	(18,1)	(19,1)	(0,8)	(-42,1)	(311,1)	(392,2)	(384,1)	(118,1)	(428,1)	(2,1)	(370,1)	(418,1)	
L1D -391>	(1,10)	(0,9)	(50,1)	(154,1)	(29,1)	(391,4)	(98,1)	(406,1)	(-52,1)	(396,5)	(-28,1)	(128,1)	(413,2)	(270,1)	(255,1)	(105,1)	
L1D -390>	(0,6)	(1,6)	(390,9)	(282,1)	(389,1)	(111,1)	(-20,1)	(392,1)	(396,1)	(432,1)	(406,1)	(64,2)	(385,1)	(258,1)	(395,1)	(231,1)	
L1D -389>	(389,8)	(1,4)	(-36,1)	(392,1)	(390,1)	(0,3)	(424,2)	(388,1)	(48,1)	(-79,1)	(170,1)	(310,1)	(277,1)	(-86,1)	(102,1)	(1,0)	
L1D -388>	(386,1)	(0,11)	(388,4)	(1,5)	(-2,1)	(49,1)	(259,1)	(426,1)	(396,1)	(395,1)	(31,1)	(394,1)	(387,1)	(1,0)	(1,0)	(1,0)	
L1D -387>	(387,8)	(64,1)	(2,4)	(386,4)	(0,10)	(1,5)	(374,1)	(377,1)	(380,1)	(376,1)	(255,1)	(153,1)	(408,1)	(221,1)	(55,1)	(411,1)	
L1D -386>	(378,3)	(386,99)	(0,21)	(385,10)	(1,6)	(387,6)	(363,4)	(395,4)	(420,3)	(394,1)	(390,1)	(8,1)	(411,1)	(484,1)	(70,1)	(451,1)	
L1D -385>	(1,8)	(-2,1)	(385,30)	(386,34)	(0,18)	(117,1)	(395,4)	(240,1)	(390,3)	(396,7)	(394,2)	(257,1)	(252,1)	(64,1)	(-4,1)	(310,1)	
L1D -384>	(384,7)	(0,13)	(473,1)	(378,1)	(-13,1)	(220,1)	(1,1)	(266,1)	(430,1)	(385,2)	(3,1)	(442,1)	(145,1)	(292,1)	(290,1)	(64,1)	
L1D -383>	(388,1)	(0,9)	(64,1)	(383,16)	(406,1)	(349,1)	(391,1)	(59,1)	(394,1)	(1,5)	(398,1)	(300,1)	(249,1)	(91,1)	(340,1)	(285,1)	
L1D -382>	(0,13)	(383,3)	(382,4)	(1,6)	(-43,1)	(369,1)	(371,1)	(-74,1)	(85,1)	(-21,1)	(396,1)	(375,1)	(-46,1)	(314,1)	(273,1)	(379,1)	
L1D -381>	(381,5)	(383,1)	(0,10)	(1,6)	(359,1)	(385,1)	(260,1)	(222,1)	(382,2)	(-41,1)	(-77,1)	(-89,1)	(300,1)	(386,2)	(228,1)	(325,1)	
L1D -380>	(0,12)	(267,1)	(379,1)	(380,15)	(368,1)	(338,1)	(248,1)	(381,3)	(-108,1)	(1,4)	(374,1)	(317,1)	(199,1)	(405,1)	(263,1)	(355,1)	
L1D -379>	(0,11)	(365,1)	(379,14)	(1,6)	(275,1)	(378,2)	(384,2)	(499,1)	(382,1)	(154,1)	(292,2)	(236,1)	(64,2)	(209,1)	(83,1)	(317,1)	
L1D -378>	(379,5)	(1,15)	(251,1)	(0,11)	(366,1)	(378,7)	(430,1)	(-21,1)	(80,1)	(-37,1)	(-41,1)	(248,1)	(64,1)	(377,6)	(410,1)	(306,1)	
L1D -377>	(0,16)	(357,1)	(377,62)	(1,5)	(378,13)	(291,1)	(376,7)	(355,1)	(344,1)	(365,1)	(214,1)	(180,1)	(278,1)	(383,2)	(-51,1)	(416,1)	
L1D -376>	(0,14)	(291,1)	(1,5)	(22,1)	(363,2)	(69,1)	(377,23)	(344,1)	(376,7)	(343,1)	(-60,1)	(370,1)	(295,1)	(307,1)	(243,1)	(1,0)	
L1D -375>	(380,3)	(375,20)	(0,12)	(-104,1)	(1,9)	(187,1)	(-1,1)	(374,3)	(322,1)	(376,3)	(321,1)	(110,2)	(46,1)	(339,1)	(260,1)	(-65,1)	
L1D -374>	(108,1)	(383,1)	(374,2)	(375,16)	(0,12)	(168,3)	(1,5)	(385,1)	(294,1)	(-31,1)	(-16,1)	(245,1)	(-82,1)	(227,1)	(59,1)	(1,0)	
L1D -373>	(1,8)	(431,1)	(372,3)	(373,3)	(0,8)	(432,1)	(64,1)	(35,1)	(335,2)	(250,1)	(295,1)	(205,1)	(252,1)	(268,1)	(379,1)	(374,1)	
L1D -372>	(64,1)	(365,1)	(0,8)	(86,1)	(43,1)	(372,12)	(373,4)	(123,1)	(1,6)	(271,1)	(432,1)	(304,1)	(290,1)	(19,1)	(-66,2)	(1,0)	
L1D -371>	(0,6)	(1,5)	(372,2)	(45,1)	(358,1)	(-21,1)	(-6,1)	(377,2)	(314,1)	(-87,1)	(236,1)	(56,1)	(376,1)	(1,0)	(1,0)	(1,0)	
L1D -370>	(0,15)	(371,26)	(254,1)	(369,1)	(1,9)	(230,1)	(11,1)	(370,1)	(352,1)	(381,2)	(42,1)	(144,1)	(368,2)	(148,1)	(376,1)	(314,1)	
L1D -369>	(103,1)	(369,65)	(0,6)	(368,1)	(1,8)	(329,1)	(388,1)	(498,1)	(449,1)	(-11,1)	(370,7)	(277,1)	(311,1)	(63,1)	(257,1)	(-32,1)	
L1D -368>	(0,18)	(368,15)	(369,5)	(294,1)	(241,1)	(1,9)	(247,2)	(-118,1)	(164,1)	(25,1)	(367,2)	(321,1)	(93,1)	(290,1)	(-59,1)	(486,1)	
L1D -367>	(2,1)	(0,21)	(1,12)	(363,1)	(367,10)	(284,1)	(-2,2)	(-31,1)	(325,1)	(-62,1)	(-40,1)	(-89,1)	(368,3)	(-122,1)	(314,1)	(-3,1)	
L1D -366>	(1,17)	(366,4)	(0,39)	(200,1)	(70,1)	(2,1)	(-2,1)	(398,1)	(402,1)	(393,1)	(363,1)	(-32,1)	(1,0)	(1,0)	(1,0)	(1,0)	
L1D -365>	(1,13)	(0,28)	(365,10)	(64,1)	(-2,2)	(22,1)	(288,1)	(356,1)	(371,2)	(-89,1)	(422,1)	(364,1)	(245,1)	(295,1)	(68,1)	(332,1)	
L1D -364>	(2,1)	(309,1)	(194,1)	(369,3)	(0,5)	(-12,1)	(-27,1)	(300,1)	(-82,1)	(179,1)	(64,1)	(1,4)	(365,1)	(229,1)	(230,1)	(249,1)	
L1D -363>	(386,2)	(-47,1)	(382,1)	(0,5)	(375,1)	(363,7)	(1,2)	(364,1)	(366,1)	(377,1)	(64,1)	(369,1)	(362,1)	(276,1)	(150,1)	(374,1)	
L1D -362>	(0,8)	(386,4)	(387,3)	(361,4)	(362,10)	(1,6)	(363,1)	(64,3)	(377,1)	(463,1)	(271,1)	(243,1)	(424,1)	(250,1)	(307,1)	(3,1)	
L1D -361>	(2,2)	(362,12)	(0,9)	(361,9)	(-52,1)	(-12,1)	(1,5)	(285,1)	(4,1)	(238,1)	(165,1)	(-24,1)	(366,1)	(190,1)	(248,1)	(-66,1)	
L1D -360>	(183,1)	(0,6)	(360,15)	(361,8)	(1,4)	(29,1)	(43,1)	(-13,1)	(64,1)	(457,1)	(19,1)	(365,1)	(219,1)	(290,1)	(285,1)	(383,1)	
L1D -359>	(1,16)	(65,1)	(382,1)	(359,11)	(360,4)	(257,19)	(431,1)	(275,1)	(-7,1)	(0,8)	(-37,1)	(-1,4)	(314,1)	(12,1)	(334,1)	(245,1)	
L1D -358>	(222,1)	(0,19)	(359,5)	(358,13)	(1,8)	(-70,1)	(-97,1)	(364,2)	(46,1)	(-104,1)	(193,1)	(257,1)	(262,1)	(221,1)	(240,1)	(352,1)	
L1D -357>	(0,7)	(356,4)	(1,5)	(358,4)	(357,4)	(374,2)	(8,1)	(299,1)	(359,1)	(255,1)	(351,1)	(-8,1)	(363,2)	(108,1)	(219,1)	(148,1)	
L1D -356>	(356,11)	(0,21)	(344,1)	(347,1)	(1,7)	(-1,1)	(355,1)	(380,1)	(-32,1)	(7,1)	(362,2)	(-11,1)	(178,1)	(288,1)	(323,1)	(329,1)	
L1D -355>	(343,1)	(356,4)	(355,11)	(0,11)	(1,8)	(201,1)	(361,1)	(173,1)	(354,1)	(23,1)	(164,1)	(-49,1)	(-54,1)	(270,1)	(224,1)	(-57,1)	
L1D -354>	(9,1)	(-69,1)	(0,12)	(1,7)	(342,1)	(354,4)	(358,1)	(-12,1)	(64,2)	(-31,1)	(193,1)	(-74,1)	(318,1)	(-110,1)	(8,1)	(-80,1)	
L1D -353>	(358,3)	(0,22)	(1,8)	(353,14)	(354,4)	(18,2)	(149,1)	(-79,1)	(238,1)	(379,1)	(191,1)	(267,1)	(-44,1)	(64,1)	(215,1)	(-15,1)	
L1D -352>	(0,12)	(353,3)	(18,1)	(399,1)	(352,8)	(6,1)	(198,1)	(341,1)	(379,1)	(340,1)	(384,1)	(-1,1)	(444,1)	(1,3)	(114,1)	(358,1)	
L1D -351>	(0,12)	(1,12)	(295,1)	(-23,1)	(-19,1)	(392,1)	(216,1)	(400,1)	(197,1)	(357,1)	(27,1)	(12,1)	(352,9)	(-44,1)	(-16,2)	(351,7)	
L1D -350>	(1,8)	(350,16)	(349,4)	(0,16)	(356,1)	(-68,1)	(355,2)	(406,1)	(312,1)	(64,2)	(393,1)	(257,1)	(377,1)	(335,1)	(351,1)	(230,1)	
L1D -349>	(349,21)	(369,1)	(348,2)	(0,12)	(1,8)	(160,1)	(355,1)	(344,1)	(357,1)	(221,1)	(233,1)	(235,1)	(244,1)	(252,1)	(-149,1)	(354,1)	
L1D -348>	(347,1)	(348,6)	(1,6)	(9,1)	(319,1)	(0,12)	(349,3)	(353,1)	(-80,1)	(296,1)	(2,1)	(285,1)	(-113,1)	(196,1)	(1,0)	(1,0)	
L1D -347>	(348,8)	(1,5)	(347,3)	(-4,1)	(346,1)	(0,6)	(266,2)	(173,1)	(-30,1)	(352,1)	(64,1)	(330,1)	(332,1)	(198,1)	(-54,1)	(183,1)	
L1D -346>	(345,2)	(1,5)	(64,1)	(-18,1)	(346,6)	(360,1)	(0,7)	(180,1)	(351,1)	(387,1)	(-8,1)	(323,1)	(-111,1)	(-122,1)	(264,1)	(324,1)	
L1D -345>	(1,11)	(346,2)	(-1,1)	(250,1)	(25,1)	(351,1)	(345,5)	(344,1)	(341,1)	(0,5)	(-114,1)	(234,1)	(-91,1)	(-27,1)	(356,1)	(-4,1)	
L1D -344>	(0,19)	(343,2)	(344,7)	(350,1)	(1,5)	(21,2)	(349,1)	(72,1)	(-21,1)	(222,1)	(-4,1)	(-16,1)	(64,1)	(345,1)	(352,1)	(76,1)	
L1D -343>	(343,5)	(342,3)	(344,2)	(1,14)	(-40,4)	(64,4)	(348,2)	(23,1)	(0,6)	(7,1)	(407,1)	(277,1)	(-2,1)	(34,1)	(-74,1)	(233,1)	
L1D -342>	(0,17)	(1,11)	(342,35)	(341,9)	(64,1)	(2,1)	(411,1)	(138,1)	(357,1)	(203,1)	(348,1)	(340,1)	(397,1)	(398,1)	(3,1)	(6,1)	
L1D -341>	(1,10)	(341,48)	(342,26)	(-22,1)	(13,1)	(0,20)	(202,1)	(60,1)	(362,1)	(327,1)	(403,2)	(140,1)	(72,1)	(419,1)	(315,1)	(333,4)	
L1D -340>	(-67,2)	(340,7)	(0,8)	(-29,1)	(-1,1)	(-28,1)	(1,9)	(348,1)	(-26,1)	(225,1)	(49,1)	(345,1)	(381,1)	(-23,2)	(341,5)	(-50,1)	
L1D -339>	(0,7)	(438,4)	(339,14)	(313,1)	(337,3)	(338,1)	(1,7)	(-69,1)	(327,1)	(440,1)	(331,1)	(325,1)	(257,1)	(-17,1)	(342,1)	(48,2)	
L1D -338>	(188,1)	(0,17)	(373,1)	(1,12)	(338,7)	(337,1)	(5,1)	(133,1)	(241,1)	(344,1)	(80,1)	(48,3)	(343,2)	(-97,1)	(333,1)	(-89,1)	
L1D -337>	(0,11)	(337,12)	(64,3)	(338,3)	(1,9)	(48,6)	(342,3)	(325,1)	(66,1)	(-24,1)	(332,1)	(164,1)	(340,1)	(371,1)	(183,1)	(287,1)	
L1D -336>	(99,1)	(335,2)	(336,19)	(0,17)	(172,1)	(216,1)	(337,2)	(44,1)	(1,3)	(-69,1)	(-24,2)	(17,1)	(64,1)	(411,1)	(309,1)	(48,7)	
L1D -335>	(336,2)	(335,12)	(0,15)	(48,6)	(341,2)	(44,4)	(1,5)	(64,1)	(403,1)	(332,1)	(17,1)	(299,1)	(283,1)	(-23,1)	(-22,1)	(-93,1)	
L1D -334>	(0,21)	(44,6)	(352,5)	(48,3)	(1,16)	(334,9)	(209,1)	(245,1)	(335,15)	(387,1)	(311,1)	(11,1)	(70,1)	(75,1)	(225,1)	(216,1)	
L1D -333>	(1,8)	(334,2)	(333,22)	(0,12)	(332,3)	(320,1)	(83,1)	(44,10)	(58,1)	(209,1)	(63,1)	(331,1)	(339,1)	(235,1)	(297,1)	(219,1)	
L1D -332>	(318,2)	(104,1)	(332,43)	(0,27)	(333,5)	(44,7)	(-65,1)	(64,3)	(-21,1)	(1,7)	(227,1)	(32,1)	(377,1)	(338,1)	(-142,1)	(120,1)	
L1D -331>	(0,28)	(163,1)	(331,9)	(332,4)	(44,9)	(260,1)	(1,5)	(336,1)	(400,1)	(129,2)	(306,1)	(171,1)	(300,1)	(301,1)	(194,1)	(292,1)	
L1D -330>	(381,2)	(0,13)	(1,5)	(108,1)	(328,1)	(44,7)	(200,1)	(-38,1)	(-7,1)	(341,1)	(327,1)	(12,1)	(345,1)	(2,1)	(67,1)	(6,1)	
L1D -329>	(330,8)	(315,1)	(0,11)	(215,1)	(80,1)	(282,1)	(218,1)	(1,7)	(316,1)	(256,1)	(332,1)	(143,1)	(328,1)	(334,1)	(329,9)	(210,1)	
L1D -328>	(0,16)	(108,1)	(143,1)	(1,12)	(328,4)	(32,1)	(-117,1)	(239,1)	(182,1)	(329,11)	(80,1)	(264,1)	(361,1)	(421,1)	(-56,1)	(200,1)	
L1D -327>	(-6,2)	(0,14)	(156,1)	(1,13)	(36,1)	(189,1)	(140,1)	(15,1)	(437,1)	(328,2)	(238,1)	(240,1)	(338,1)	(327,7)	(345,1)	(470,1)	
L1D -326>	(0,13)	(344,2)	(1,9)	(345,1)	(45,1)	(326,10)	(253,1)	(332,1)	(325,1)	(-56,2)	(64,1)	(143,1)	(347,2)	(349,1)	(173,1)	(-57,1)	
L1D -325>	(1,8)	(356,2)	(325,7)	(0,8)	(265,1)	(-24,1)	(331,2)	(353,1)	(64,1)	(326,1)	(274,1)	(135,1)	(211,1)	(373,1)	(220,1)	(166,1)	
L1D -324>	(324,3)	(1,5)	(-10,1)	(4,1)	(84,1)	(0,11)	(94,1)	(-140,1)	(22,1)	(329,2)	(322,1)	(325,4)	(323,1)	(271,1)	(321,1)	(310,4)	
L1D -323>	(322,2)	(91,1)	(0,27)	(1,6)	(383,1)	(33,4)	(101,1)	(131,1)	(384,1)	(-21,1)	(68,1)	(323,10)	(326,1)	(-112,1)	(324,2)	(391,1)	
L1D -322>	(33,12)	(153,1)	(0,17)	(342,4)	(322,7)	(323,2)	(1,6)	(296,1)	(69,1)	(479,1)	(45,1)	(395,1)	(405,1)	(4,1)	(31,1)	(327,1)	
L1D -321>	(33,16)	(321,39)	(-80,1)	(322,2)	(0,29)	(-3,1)	(326,1)	(-126,1)	(1,12)	(-98,1)	(267,1)	(334,1)	(20,1)	(-29,1)	(122,1)	(303,1)	
L1D -320>	(0,37)	(33,18)	(319,2)	(320,11)	(321,1)	(37,1)	(307,1)	(318,1)	(326,3)	(57,1)	(325,2)	(6,2)	(64,2)	(1,4)	(-75,1)	(-4,1)	
L1D -319>	(319,12)	(320,4)	(0,29)	(317,2)	(33,14)	(342,4)	(1,5)	(341,2)	(-73,1)	(-1,1)	(-2,1)	(321,1)	(80,1)	(390,1)	(-63,1)	(399,1)	
L1D -318>	(319,10)	(0,24)	(1,7)	(318,7)	(316,2)	(380,2)	(33,2)	(-73,1)	(-26,4)	(317,3)	(160,1)	(110,1)	(-106,1)	(-34,2)	(-153,1)	(-110,1)	
L1D -317>	(0,10)	(360,2)	(316,2)	(318,7)	(317,24)	(264,4)	(8,1)	(-21,1)	(1,4)	(211,1)	(206,1)	(213,1)	(-59,1)	(-76,1)	(220,1)	(281,1)	
L1D -316>	(0,18)	(121,1)	(1,12)	(75,1)	(434,1)	(316,7)	(219,1)	(-51,1)	(161,1)	(334,1)	(315,1)	(317,7)	(194,1)	(-133,1)	(2,1)	(-173,1)	
L1D -315>	(-23,1)	(305,1)	(315,44)	(0,26)	(1,11)	(66,1)	(316,18)	(146,1)	(-75,1)	(-22,2)	(-28,1)	(29,1)	(154,1)	(353,1)	(26,1)	(409,1)	
L1D -314>	(0,22)	(314,26)	(158,2)	(315,26)	(435,2)	(154,1)	(326,1)	(325,1)	(302,1)	(320,2)	(-40,1)	(1,7)	(35,1)	(-25,1)	(14,1)	(131,1)	
L1D -313>	(0,7)	(1,6)	(-91,1)	(315,1)	(312,1)	(313,24)	(314,4)	(289,1)	(20,1)	(-4,1)	(378,1)	(304,2)	(296,1)	(33,1)	(281,1)	(-24,1)	
L1D -312>	(425,1)	(311,1)	(0,15)	(315,1)	(313,8)	(312,5)	(181,1)	(269,1)	(1,4)	(-29,1)	(-62,1)	(240,2)	(68,1)	(246,1)	(149,1)	(117,1)	
L1D -311>	(317,2)	(311,8)	(-95,1)	(312,2)	(124,1)	(247,1)	(167,1)	(0,14)	(1,7)	(77,1)	(22,2)	(304,1)	(88,1)	(310,1)	(39,1)	(-21,1)	
L1D -310>	(22,9)	(0,17)	(311,4)	(76,1)	(252,1)	(313,1)	(1,8)	(-107,1)	(86,1)	(9,1)	(341,1)	(184,1)	(250,1)	(249,1)	(21,1)	(177,1)	
L1D -309>	(1,7)	(22,18)	(-14,1)	(19,1)	(310,1)	(20,2)	(37,1)	(-1,1)	(0,16)	(309,1)	(314,2)	(21,1)	(64,1)	(324,1)	(148,1)	(-105,1)	
L1D -308>	(22,17)	(64,1)	(307,3)	(0,12)	(15,1)	(337,1)	(1,5)	(309,2)	(308,3)	(379,1)	(133,1)	(303,2)	(279,1)	(-12,1)	(396,1)	(-117,1)	
L1D -307>	(22,14)	(0,21)	(208,1)	(1,9)	(307,67)	(346,1)	(21,5)	(137,1)	(18,2)	(-1,1)	(308,8)	(-115,1)	(-40,1)	(258,1)	(-12,1)	(-4,1)	
L1D -306>	(20,6)	(0,17)	(306,36)	(307,16)	(112,1)	(147,1)	(-124,1)	(1,2)	(237,1)	(21,3)	(-8,1)	(22,9)	(293,2)	(164,1)	(106,1)	(85,1)	
L1D -305>	(305,13)	(0,18)	(311,1)	(2,5)	(1,9)	(22,1)	(156,1)	(137,1)	(64,1)	(310,1)	(304,2)	(-179,1)	(178,1)	(63,1)	(224,1)	(150,1)	
L1D -304>	(1,13)	(304,4)	(52,1)	(204,1)	(64,2)	(346,1)	(0,33)	(20,2)	(-2,1)	(329,1)	(303,4)	(18,5)	(117,1)	(300,1)	(85,1)	(370,1)	
L1D -303>	(1,20)	(18,3)	(0,37)	(309,4)	(303,24)	(304,2)	(64,1)	(-3,1)	(288,1)	(-2,2)	(340,1)	(-127,1)	(347,1)	(-105,1)	(-41,1)	(310,1)	
L1D -302>	(-1,1)	(89,1)	(134,1)	(302,8)	(0,15)	(303,5)	(1,11)	(14,2)	(18,4)	(257,1)	(-158,1)	(301,2)	(308,3)	(318,1)	(347,1)	(307,1)	
L1D -301>	(221,1)	(300,2)	(39,1)	(-14,1)	(-73,1)	(301,9)	(81,2)	(273,1)	(82,1)	(0,12)	(1,9)	(306,5)	(217,1)	(289,1)	(-85,1)	(302,1)	
L1D -300>	(-1,3)	(1,12)	(0,19)	(300,24)	(299,3)	(176,1)	(11,5)	(22,1)	(301,6)	(350,1)	(262,1)	(64,2)	(306,1)	(267,1)	(-54,1)	(174,1)	
L1D -299>	(11,24)	(0,25)	(1,7)	(2,1)	(64,1)	(299,20)	(300,6)	(425,2)	(8,1)	(298,6)	(368,1)	(187,1)	(293,2)	(165,2)	(180,1)	(437,1)	
L1D -298>	(-120,2)	(0,37)	(11,57)	(1,7)	(297,4)	(304,1)	(210,1)	(5,1)	(193,1)	(-23,1)	(303,2)	(302,1)	(-5,1)	(299,3)	(-75,3)	(298,4)	
L1D -297>	(1,14)	(0,47)	(11,109)	(9,1)	(259,1)	(276,1)	(297,7)	(201,1)	(257,10)	(8,1)	(242,1)	(149,1)	(36,1)	(-25,2)	(-117,1)	(306,1)	
L1D -296>	(0,25)	(11,70)	(296,7)	(297,4)	(2,1)	(317,1)	(1,7)	(-1,1)	(-24,1)	(280,1)	(286,1)	(8,1)	(32,1)	(257,0)	(65,1)	(264,0)	
L1D -295>	(11,66)	(296,1)	(294,1)	(0,31)	(1,12)	(-1,1)	(229,1)	(231,1)	(8,2)	(295,5)	(-8,1)	(257,13)	(2,1)	(434,0)	(423,0)	(-14,0)	
L1D -294>	(11,43)	(1,10)	(8,1)	(294,11)	(0,21)	(6,1)	(17,1)	(4,1)	(295,6)	(304,1)	(-171,1)	(300,4)	(-118,2)	(7,3)	(257,7)	(9,3)	
L1D -293>	(292,5)	(1,29)	(-203,2)	(293,16)	(3,3)	(0,24)	(257,93)	(-1,5)	(307,3)	(299,3)	(234,1)	(284,1)	(283,1)	(277,1)	(281,1)	(266,1)	
L1D -292>	(292,10)	(0,27)	(1,13)	(297,11)	(306,2)	(293,6)	(7,1)	(-4,2)	(126,1)	(238,1)	(296,1)	(77,1)	(145,1)	(320,1)	(287,1)	(21,1)	
L1D -291>	(-120,2)	(292,8)	(0,25)	(9,2)	(-1,2)	(-6,2)	(291,23)	(1,14)	(-4,3)	(499,1)	(-2,1)	(-3,1)	(290,2)	(-29,1)	(296,13)	(360,1)	
L1D -290>	(1,17)	(296,1)	(-1,4)	(0,29)	(446,1)	(261,1)	(290,23)	(289,6)	(3,1)	(19,1)	(291,7)	(295,16)	(65,8)	(-64,1)	(-9,1)	(-69,2)	
L1D -289>	(0,24)	(-71,5)	(289,31)	(290,4)	(288,3)	(1,9)	(102,2)	(-1,6)	(355,1)	(174,1)	(274,1)	(453,1)	(294,9)	(-3,2)	(295,2)	(-16,1)	
L1D -288>	(0,25)	(374,3)	(102,1)	(1,10)	(-51,1)	(6,1)	(-19,2)	(212,1)	(275,1)	(276,1)	(288,6)	(289,5)	(56,1)	(293,6)	(142,1)	(-158,1)	
L1D -287>	(176,1)	(288,6)	(1,8)	(286,1)	(343,1)	(267,2)	(-145,1)	(293,2)	(190,1)	(292,9)	(110,1)	(287,33)	(476,1)	(0,13)	(122,1)	(279,1)	
L1D -286>	(117,1)	(329,2)	(298,1)	(1,12)	(288,1)	(286,3)	(0,23)	(291,7)	(-6,1)	(-7,1)	(297,1)	(292,10)	(169,1)	(356,1)	(134,1)	(281,1)	
L1D -285>	(285,9)	(64,3)	(0,19)	(47,1)	(-51,1)	(290,22)	(1,5)	(291,6)	(45,1)	(286,5)	(57,1)	(108,1)	(3,1)	(158,1)	(349,1)	(-1,1)	
L1D -284>	(1,8)	(0,24)	(283,2)	(86,1)	(-55,1)	(290,16)	(64,1)	(337,1)	(3,1)	(234,1)	(6,1)	(29,1)	(270,1)	(284,7)	(169,1)	(405,1)	
L1D -283>	(-10,1)	(209,1)	(283,34)	(289,14)	(0,20)	(327,7)	(-109,1)	(160,1)	(294,2)	(1,6)	(282,6)	(285,1)	(261,1)	(284,3)	(288,1)	(207,1)	
L1D -282>	(288,7)	(283,20)	(282,30)	(281,2)	(0,22)	(287,4)	(278,1)	(-9,1)	(318,1)	(222,1)	(64,2)	(233,1)	(264,1)	(261,1)	(89,1)	(1,5)	
L1D -281>	(286,5)	(-77,2)	(0,25)	(-55,1)	(281,23)	(282,15)	(34,1)	(234,10)	(391,1)	(267,1)	(280,5)	(235,2)	(233,1)	(1,8)	(287,7)	(-28,1)	
L1D -280>	(279,6)	(1,9)	(280,18)	(0,19)	(286,12)	(281,3)	(308,2)	(285,10)	(82,1)	(-111,1)	(-92,1)	(269,2)	(6,1)	(309,1)	(161,1)	(254,1)	
L1D -279>	(279,34)	(0,39)	(280,6)	(292,1)	(284,9)	(285,31)	(124,1)	(59,1)	(-9,2)	(1,17)	(334,1)	(101,1)	(-192,1)	(278,1)	(315,1)	(186,1)	
L1D -278>	(1,43)	(0,15)	(279,3)	(278,29)	(285,1)	(-126,1)	(276,1)	(204,1)	(182,1)	(283,8)	(-35,1)	(-8,1)	(161,1)	(284,1)	(64,2)	(416,2)	
L1D -277>	(1,85)	(282,15)	(0,26)	(277,27)	(64,2)	(302,1)	(278,14)	(280,1)	(276,3)	(35,1)	(247,3)	(248,4)	(259,1)	(3,1)	(14,1)	(-1,1)	
L1D -276>	(1,82)	(276,22)	(0,18)	(-34,0)	(277,7)	(-148,0)	(-28,0)	(-96,0)	(247,5)	(281,8)	(227,0)	(158,1)	(202,0)	(282,0)	(8,0)	(261,0)	
L1D -275>	(1,81)	(275,7)	(0,19)	(274,1)	(4,1)	(305,1)	(297,2)	(6,1)	(114,0)	(280,2)	(-109,0)	(281,2)	(105,0)	(276,0)	(424,0)	(238,0)	
L1D -274>	(1,117)	(0,41)	(274,14)	(376,2)	(381,16)	(12,1)	(148,1)	(279,14)	(280,6)	(-97,1)	(3,1)	(-29,1)	(136,1)	(35,1)	(135,1)	(-24,2)	
L1D -273>	(273,38)	(0,77)	(-1,13)	(268,2)	(1,104)	(136,36)	(135,18)	(269,2)	(279,5)	(274,4)	(271,1)	(-136,3)	(272,10)	(-135,7)	(-121,1)	(177,1)	
L1D -272>	(1,29)	(136,10)	(0,57)	(135,16)	(259,3)	(278,9)	(272,22)	(273,15)	(271,7)	(-136,3)	(-135,3)	(285,3)	(139,2)	(-1,25)	(2,5)	(283,1)	
L1D -271>	(-1,24)	(272,8)	(0,48)	(271,40)	(277,6)	(7,1)	(276,4)	(3,2)	(1,8)	(135,3)	(270,2)	(282,2)	(165,1)	(167,1)	(127,1)	(14,1)	
L1D -270>	(-1,14)	(0,45)	(270,43)	(48,1)	(289,2)	(271,10)	(269,2)	(1,10)	(151,1)	(276,14)	(171,1)	(287,1)	(153,1)	(410,1)	(275,8)	(334,1)	
L1D -269>	(274,12)	(1,19)	(0,44)	(268,9)	(269,67)	(270,11)	(256,2)	(24,1)	(64,1)	(255,1)	(-1,6)	(-2,2)	(95,1)	(133,1)	(273,1)	(275,11)	
L1D -268>	(268,117)	(0,39)	(270,3)	(273,8)	(1,12)	(257,2)	(267,9)	(317,2)	(269,16)	(-1,3)	(274,25)	(377,1)	(88,1)	(-9,3)	(94,1)	(266,1)	
L1D -267>	(273,4)	(0,44)	(267,78)	(1,17)	(268,28)	(269,3)	(266,8)	(64,1)	(417,1)	(-109,1)	(181,1)	(272,11)	(-2,1)	(279,2)	(230,1)	(37,1)	
L1D -266>	(282,4)	(1,11)	(266,49)	(-1,3)	(267,18)	(225,3)	(0,14)	(271,20)	(2,3)	(314,1)	(338,1)	(-2,1)	(-18,1)	(297,4)	(298,1)	(150,1)	
L1D -265>	(0,28)	(270,11)	(265,16)	(266,10)	(1,8)	(281,1)	(106,1)	(295,2)	(221,2)	(164,1)	(113,2)	(241,1)	(-3,1)	(-67,1)	(140,1)	(188,1)	
L1D -264>	(1,17)	(264,18)	(263,1)	(205,1)	(247,2)	(-7,2)	(0,22)	(166,1)	(269,13)	(270,13)	(64,2)	(261,1)	(25,1)	(259,1)	(342,1)	(303,1)	
L1D -263>	(0,22)	(264,7)	(1,15)	(-149,2)	(263,24)	(252,2)	(125,1)	(269,18)	(268,21)	(36,1)	(130,1)	(256,1)	(255,1)	(250,1)	(308,1)	(305,1)	
L1D -262>	(271,2)	(3,2)	(268,11)	(0,20)	(267,7)	(262,13)	(266,2)	(7,1)	(263,5)	(261,1)	(-5,1)	(255,1)	(64,2)	(1,16)	(71,1)	(-9,2)	
L1D -261>	(0,15)	(1,14)	(267,11)	(261,5)	(51,1)	(411,1)	(234,2)	(340,1)	(64,2)	(187,1)	(-1,2)	(317,1)	(-77,1)	(156,1)	(-69,1)	(-153,1)	
L1D -260>	(266,17)	(1,12)	(261,4)	(-16,1)	(260,17)	(282,2)	(207,1)	(125,1)	(0,18)	(233,1)	(128,1)	(5,2)	(-2,3)	(-1,1)	(-22,1)	(477,1)	
L1D -259>	(265,11)	(1,10)	(0,26)	(264,9)	(260,10)	(227,1)	(-102,1)	(270,1)	(199,1)	(280,1)	(35,2)	(141,1)	(-6,1)	(258,4)	(-58,1)	(419,1)	
L1D -258>	(258,14)	(263,11)	(259,1)	(257,3)	(1,10)	(395,1)	(0,36)	(-1,1)	(222,1)	(274,1)	(-84,1)	(276,1)	(252,1)	(264,9)	(275,1)	(220,1)	
L1D -257>	(258,5)	(257,12)	(335,4)	(5,2)	(301,1)	(214,1)	(263,19)	(-54,1)	(1,9)	(262,11)	(175,1)	(0,20)	(-172,1)	(64,1)	(4,1)	(211,1)	
L1D -256>	(255,3)	(1,11)	(0,23)	(256,11)	(-2,2)	(-6,1)	(192,1)	(70,1)	(261,8)	(-18,1)	(257,7)	(123,1)	(260,2)	(-58,1)	(179,1)	(-1,1)	
L1D -255>	(255,13)	(254,2)	(0,39)	(256,5)	(-21,1)	(260,19)	(-7,1)	(261,5)	(1,8)	(3,1)	(407,1)	(-40,1)	(282,1)	(108,1)	(211,1)	(10,1)	
L1D -254>	(64,3)	(1,13)	(254,10)	(255,4)	(253,2)	(259,10)	(0,21)	(7,1)	(-2,1)	(-101,1)	(196,1)	(267,1)	(142,1)	(241,1)	(100,1)	(-1,2)	
L1D -253>	(253,7)	(259,20)	(252,4)	(0,25)	(258,18)	(461,6)	(1,10)	(245,2)	(-62,9)	(254,4)	(370,1)	(109,1)	(264,1)	(-128,1)	(424,1)	(257,1)	
L1D -252>	(257,29)	(253,19)	(-158,2)	(1,12)	(274,2)	(0,20)	(-20,1)	(252,17)	(254,1)	(258,17)	(178,1)	(-4,1)	(268,2)	(-1,2)	(181,2)	(231,1)	
L1D -251>	(246,1)	(64,1)	(0,33)	(165,1)	(252,3)	(1,11)	(172,1)	(219,1)	(257,16)	(-69,1)	(-70,1)	(-1,4)	(251,9)	(-21,1)	(220,1)	(256,2)	
L1D -250>	(-17,2)	(0,22)	(250,15)	(1,16)	(121,1)	(256,9)	(64,2)	(304,1)	(-192,1)	(266,1)	(249,6)	(46,1)	(-96,1)	(-69,2)	(268,1)	(-21,3)	
L1D -249>	(0,34)	(31,1)	(269,1)	(249,24)	(178,1)	(1,7)	(255,16)	(-54,1)	(-22,5)	(58,1)	(282,1)	(250,12)	(131,1)	(247,1)	(241,2)	(93,1)	
L1D -248>	(0,24)	(196,1)	(248,17)	(259,1)	(64,3)	(1,10)	(254,16)	(253,15)	(-6,1)	(152,1)	(222,1)	(171,1)	(-70,1)	(236,1)	(242,1)	(-1,1)	
L1D -247>	(1,12)	(0,15)	(253,12)	(247,15)	(-77,9)	(248,5)	(276,1)	(64,1)	(3,1)	(-39,2)	(218,1)	(205,1)	(-22,1)	(-7,1)	(337,1)	(252,16)	
L1D -246>	(252,28)	(503,1)	(246,32)	(-241,1)	(192,1)	(57,1)	(0,23)	(1,11)	(-126,1)	(251,15)	(115,1)	(247,5)	(245,1)	(-30,1)	(262,1)	(28,1)	
L1D -245>	(1,5)	(245,10)	(73,1)	(0,24)	(30,1)	(447,1)	(106,1)	(244,1)	(258,1)	(250,7)	(287,1)	(261,1)	(-13,1)	(64,5)	(246,7)	(142,1)	
L1D -244>	(-82,3)	(1,13)	(0,21)	(249,21)	(244,2)	(320,1)	(112,1)	(-106,1)	(243,6)	(269,1)	(-86,1)	(282,1)	(408,1)	(3,1)	(116,1)	(266,1)	
L1D -243>	(243,21)	(249,2)	(1,12)	(248,8)	(-19,2)	(-61,2)	(0,23)	(244,4)	(225,1)	(242,7)	(109,1)	(98,1)	(-69,2)	(396,1)	(-124,1)	(45,1)	
L1D -242>	(248,9)	(0,21)	(241,3)	(2,6)	(109,1)	(94,1)	(242,25)	(243,26)	(258,2)	(247,21)	(132,1)	(66,1)	(253,2)	(1,14)	(-11,1)	(106,1)	
L1D -241>	(237,2)	(1,18)	(2,12)	(0,39)	(240,2)	(246,16)	(28,2)	(392,1)	(247,11)	(-57,1)	(298,1)	(243,2)	(242,11)	(-2,3)	(415,1)	(241,32)	
L1D -240>	(1,50)	(-32,2)	(0,95)	(240,32)	(246,15)	(238,2)	(-39,4)	(2,5)	(64,1)	(257,2)	(241,8)	(266,1)	(300,1)	(239,2)	(186,1)	(355,5)	
L1D -239>	(1,60)	(0,114)	(-2,9)	(240,2)	(-1,5)	(278,2)	(2,3)	(238,3)	(245,15)	(239,6)	(305,2)	(413,1)	(-46,1)	(77,1)	(459,1)	(257,4)	
L1D -238>	(1,49)	(0,73)	(236,2)	(239,4)	(242,2)	(249,2)	(244,16)	(-2,2)	(238,4)	(224,1)	(379,1)	(-24,1)	(6,1)	(216,1)	(223,1)	(-1,3)	
L1D -237>	(1,37)	(236,6)	(0,72)	(-1,2)	(237,10)	(238,11)	(64,2)	(242,14)	(243,13)	(-78,3)	(-2,5)	(246,2)	(35,1)	(2,1)	(257,2)	(56,1)	
L1D -236>	(1,23)	(0,21)	(236,44)	(242,23)	(237,10)	(235,4)	(228,19)	(-145,2)	(396,1)	(309,1)	(181,1)	(8,2)	(-64,1)	(241,16)	(-1,2)	(269,1)	
L1D -235>	(235,16)	(227,3)	(229,4)	(1,23)	(243,2)	(241,17)	(239,3)	(234,3)	(0,25)	(127,1)	(190,1)	(240,17)	(314,1)	(236,15)	(397,3)	(3,1)	
L1D -234>	(0,29)	(233,6)	(1,16)	(234,16)	(239,14)	(23,1)	(79,1)	(281,1)	(-96,1)	(396,6)	(176,1)	(216,1)	(-219,1)	(254,1)	(395,3)	(-1,2)	
L1D -233>	(1,26)	(233,33)	(0,25)	(238,19)	(433,1)	(246,1)	(259,1)	(-1,1)	(178,1)	(231,4)	(122,1)	(234,7)	(300,1)	(2,2)	(396,2)	(257,3)	
L1D -232>	(296,7)	(303,1)	(1,31)	(232,11)	(0,15)	(168,1)	(237,8)	(65,7)	(33,1)	(390,1)	(64,3)	(233,11)	(2,4)	(311,1)	(-28,1)	(231,1)	
L1D -231>	(1,30)	(0,30)	(64,5)	(237,9)	(236,16)	(230,5)	(231,13)	(7,2)	(257,32)	(-1,2)	(-51,1)	(253,2)	(229,9)	(233,1)	(291,1)	(16,1)	
L1D -230>	(235,23)	(0,42)	(230,22)	(231,4)	(64,2)	(1,30)	(257,6)	(243,1)	(203,1)	(-1,6)	(236,14)	(237,2)	(36,1)	(56,1)	(37,1)	(2,1)	
L1D -229>	(0,38)	(334,1)	(1,26)	(247,1)	(246,1)	(230,3)	(-4,1)	(202,1)	(234,2)	(73,1)	(-21,1)	(239,1)	(-1,1)	(235,7)	(257,12)	(373,1)	
L1D -228>	(0,11)	(228,11)	(229,2)	(64,3)	(232,1)	(40,1)	(234,9)	(-8,2)	(77,1)	(223,1)	(105,1)	(1,13)	(248,1)	(-48,1)	(65,4)	(236,1)	
L1D -227>	(-122,3)	(-202,3)	(-46,2)	(249,1)	(1,12)	(233,20)	(0,18)	(91,1)	(-223,1)	(-93,1)	(32,2)	(-1,7)	(227,14)	(228,10)	(206,1)	(115,1)	
L1D -226>	(0,21)	(231,4)	(226,8)	(227,3)	(271,2)	(232,13)	(154,2)	(37,6)	(1,24)	(-40,1)	(159,1)	(57,1)	(162,1)	(257,3)	(404,1)	(65,4)	
L1D -225>	(357,2)	(231,8)	(0,29)	(1,11)	(7,1)	(225,11)	(226,8)	(230,11)	(296,2)	(3,1)	(257,1)	(-4,1)	(244,1)	(-58,1)	(141,1)	(106,1)	
L1D -224>	(0,34)	(225,4)	(-135,3)	(224,6)	(229,19)	(230,20)	(-20,2)	(1,14)	(396,1)	(137,1)	(288,1)	(148,1)	(149,3)	(223,1)	(-30,1)	(59,1)	
L1D -223>	(0,33)	(233,2)	(222,2)	(1,16)	(-17,1)	(67,1)	(228,8)	(64,2)	(229,4)	(239,1)	(259,1)	(349,1)	(325,1)	(145,1)	(-1,1)	(223,8)	
L1D -222>	(0,30)	(222,17)	(1,12)	(376,4)	(419,3)	(227,21)	(81,1)	(221,1)	(-1,1)	(342,1)	(31,1)	(228,1)	(171,1)	(-30,1)	(33,1)	(223,7)	
L1D -221>	(0,13)	(220,5)	(1,9)	(64,3)	(226,11)	(222,4)	(29,1)	(-90,2)	(-35,1)	(-25,1)	(221,12)	(227,3)	(-12,1)	(149,1)	(291,1)	(266,1)	
L1D -220>	(64,3)	(178,2)	(220,40)	(1,12)	(0,23)	(226,11)	(186,6)	(184,1)	(225,15)	(224,1)	(253,1)	(191,1)	(-119,1)	(194,3)	(87,1)	(-104,1)	
L1D -219>	(219,50)	(220,18)	(0,30)	(216,2)	(32,1)	(241,1)	(1,17)	(225,22)	(224,26)	(174,1)	(64,4)	(108,1)	(-56,1)	(-17,1)	(100,1)	(-1,1)	
L1D -218>	(216,2)	(217,7)	(0,27)	(204,3)	(224,14)	(218,9)	(245,1)	(-95,3)	(5,1)	(-6,1)	(-9,2)	(223,3)	(219,4)	(15,1)	(1,5)	(215,2)	
L1D -217>	(1,17)	(0,25)	(217,69)	(216,6)	(222,2)	(-25,3)	(223,10)	(218,6)	(193,1)	(2,1)	(263,1)	(-45,1)	(190,1)	(-24,2)	(105,1)	(76,1)	
L1D -216>	(216,41)	(217,20)	(350,2)	(222,27)	(0,23)	(1,17)	(-133,2)	(12,1)	(-32,1)	(-73,2)	(129,1)	(220,5)	(-10,2)	(229,1)	(193,1)	(314,1)	
L1D -215>	(1,11)	(215,20)	(220,14)	(-127,2)	(0,21)	(214,5)	(216,11)	(223,1)	(172,1)	(226,1)	(221,19)	(64,4)	(239,1)	(2,1)	(207,1)	(204,1)	
L1D -214>	(64,3)	(0,45)	(220,12)	(219,12)	(214,48)	(-82,1)	(-16,1)	(184,1)	(215,8)	(1,11)	(-172,2)	(189,1)	(199,2)	(237,1)	(326,1)	(317,1)	
L1D -213>	(0,30)	(1,9)	(214,14)	(213,32)	(245,1)	(-1,1)	(-86,1)	(219,21)	(391,1)	(-9,1)	(218,26)	(207,1)	(-131,1)	(-44,2)	(414,1)	(210,1)	
L1D -212>	(64,2)	(-42,2)	(1,13)	(0,25)	(217,3)	(213,4)	(-13,1)	(122,1)	(211,2)	(-177,1)	(-77,2)	(218,4)	(212,14)	(150,1)	(223,1)	(181,1)	
L1D -211>	(0,43)	(212,3)	(206,2)	(262,2)	(64,4)	(1,14)	(216,14)	(77,1)	(211,13)	(209,1)	(267,1)	(100,1)	(202,1)	(102,1)	(217,1)	(225,1)	
L1D -210>	(215,15)	(-42,2)	(1,15)	(210,24)	(-3,3)	(0,25)	(189,2)	(-114,3)	(256,3)	(211,10)	(301,2)	(-12,4)	(262,2)	(206,1)	(-60,1)	(368,1)	
L1D -209>	(0,34)	(209,44)	(215,16)	(97,1)	(369,1)	(210,7)	(214,17)	(147,1)	(-1,2)	(1,17)	(-114,1)	(-24,1)	(117,1)	(48,1)	(160,2)	(22,1)	
L1D -208>	(209,2)	(208,19)	(0,43)	(1,21)	(-1,2)	(207,4)	(64,3)	(186,1)	(443,1)	(213,18)	(236,1)	(214,16)	(204,1)	(-242,1)	(124,1)	(-46,1)	
L1D -207>	(213,16)	(0,24)	(1,9)	(-253,9)	(207,10)	(2,2)	(64,2)	(402,2)	(206,3)	(212,3)	(399,1)	(-1,4)	(358,1)	(-16,1)	(109,1)	(297,1)	
L1D -206>	(1,17)	(-114,1)	(144,1)	(207,7)	(206,13)	(0,21)	(212,11)	(-1,1)	(-50,1)	(204,1)	(-72,1)	(-93,1)	(170,1)	(211,3)	(300,1)	(89,1)	
L1D -205>	(0,25)	(210,3)	(1,11)	(64,3)	(25,2)	(-93,2)	(266,2)	(100,1)	(205,8)	(297,1)	(211,21)	(2,1)	(204,3)	(-175,1)	(-143,1)	(-129,1)	
L1D -204>	(203,2)	(0,39)	(-146,1)	(204,10)	(227,2)	(209,10)	(21,1)	(214,1)	(210,11)	(1,11)	(205,6)	(462,1)	(-1,1)	(254,1)	(118,1)	(64,3)	
L1D -203>	(0,28)	(203,13)	(204,8)	(-34,2)	(208,22)	(-184,3)	(1,12)	(10,1)	(209,12)	(-1,7)	(-65,1)	(40,1)	(453,1)	(202,2)	(385,1)	(225,3)	
L1D -202>	(10,8)	(202,11)	(1,13)	(209,2)	(208,13)	(213,3)	(430,3)	(127,4)	(216,1)	(9,1)	(234,1)	(207,17)	(0,32)	(203,4)	(317,1)	(356,1)	
L1D -201>	(201,16)	(198,1)	(202,6)	(1,16)	(0,23)	(64,3)	(16,1)	(200,5)	(172,1)	(206,8)	(297,1)	(-70,3)	(129,1)	(-1,2)	(207,3)	(134,1)	
L1D -200>	(0,23)	(199,5)	(1,22)	(11,2)	(206,2)	(200,49)	(198,3)	(10,5)	(28,2)	(205,17)	(357,1)	(366,1)	(-77,1)	(201,10)	(263,1)	(490,1)	
L1D -199>	(11,11)	(204,16)	(1,9)	(200,35)	(198,10)	(199,79)	(197,4)	(401,1)	(111,2)	(143,1)	(112,1)	(109,5)	(0,21)	(106,1)	(-261,1)	(141,1)	
L1D -198>	(198,42)	(0,27)	(199,11)	(311,3)	(204,20)	(64,6)	(123,1)	(62,1)	(97,1)	(-123,8)	(276,1)	(203,6)	(1,11)	(342,1)	(197,3)	(336,1)	
L1D -197>	(11,2)	(197,23)	(-199,1)	(0,39)	(244,1)	(1,13)	(219,1)	(212,1)	(202,20)	(203,17)	(232,1)	(281,1)	(-137,1)	(193,2)	(194,1)	(198,6)	
L1D -196>	(197,11)	(196,27)	(1,26)	(-222,4)	(0,40)	(201,2)	(202,19)	(321,1)	(2,6)	(6,1)	(356,1)	(396,1)	(64,2)	(-60,1)	(351,1)	(195,4)	
L1D -195>	(196,2)	(195,15)	(0,32)	(194,8)	(142,3)	(1,16)	(2,4)	(201,13)	(231,2)	(257,11)	(238,2)	(-46,1)	(288,1)	(229,3)	(-207,1)	(240,3)	
L1D -194>	(0,70)	(1,34)	(200,10)	(194,11)	(239,7)	(195,4)	(234,2)	(-27,2)	(229,6)	(-2,4)	(65,1)	(240,3)	(64,6)	(-13,1)	(257,19)	(-47,2)	
L1D -193>	(1,41)	(192,4)	(0,65)	(193,26)	(194,21)	(-115,2)	(198,20)	(-84,2)	(229,8)	(199,17)	(196,2)	(239,3)	(-9,1)	(257,11)	(320,1)	(18,1)	
L1D -192>	(64,7)	(1,18)	(-11,3)	(198,14)	(197,20)	(0,24)	(430,2)	(193,5)	(256,2)	(191,3)	(-69,1)	(192,9)	(189,1)	(250,1)	(-79,1)	(-10,1)	
L1D -191>	(196,19)	(-1,2)	(191,17)	(0,32)	(-9,1)	(253,1)	(219,1)	(64,2)	(-58,1)	(197,15)	(35,1)	(1,23)	(192,18)	(9,1)	(40,1)	(162,1)	
L1D -190>	(189,4)	(1,23)	(-1,2)	(0,27)	(191,12)	(190,16)	(117,1)	(154,1)	(-23,1)	(175,2)	(-66,1)	(23,3)	(160,1)	(-73,1)	(138,1)	(195,22)	
L1D -189>	(212,3)	(232,2)	(188,4)	(189,49)	(0,42)	(178,6)	(190,9)	(370,3)	(1,10)	(195,1)	(201,1)	(194,16)	(342,1)	(-70,2)	(-3,1)	(233,1)	
L1D -188>	(188,24)	(189,6)	(1,16)	(193,21)	(0,19)	(99,1)	(-165,1)	(195,1)	(-20,6)	(64,3)	(-92,1)	(394,1)	(137,1)	(505,1)	(187,3)	(113,1)	
L1D -187>	(187,51)	(1,19)	(188,9)	(0,43)	(192,9)	(-35,3)	(-12,2)	(193,16)	(64,6)	(90,1)	(139,1)	(84,1)	(92,1)	(2,1)	(-274,1)	(-132,1)	
L1D -186>	(0,24)	(185,4)	(187,16)	(186,9)	(70,3)	(1,7)	(192,18)	(-102,1)	(134,1)	(175,1)	(61,2)	(219,1)	(191,17)	(84,1)	(59,2)	(90,2)	
L1D -185>	(0,28)	(184,4)	(185,12)	(190,2)	(125,3)	(3,1)	(-183,2)	(1,12)	(116,2)	(252,1)	(173,1)	(191,12)	(-42,1)	(171,1)	(186,2)	(85,1)	
L1D -184>	(0,21)	(184,16)	(185,14)	(189,2)	(388,2)	(190,11)	(-1,1)	(1,11)	(203,1)	(24,1)	(64,1)	(183,1)	(207,1)	(-67,1)	(468,1)	(-38,1)	
L1D -183>	(183,30)	(0,26)	(189,10)	(1,15)	(51,1)	(188,2)	(307,1)	(239,1)	(178,1)	(155,1)	(-24,1)	(-68,1)	(-83,1)	(170,1)	(28,1)	(199,2)	
L1D -182>	(182,16)	(183,9)	(187,16)	(0,25)	(272,2)	(1,15)	(194,2)	(181,2)	(216,3)	(-82,1)	(-5,1)	(64,1)	(188,10)	(-9,2)	(208,1)	(14,1)	
L1D -181>	(0,33)	(182,5)	(181,13)	(-25,3)	(180,7)	(1,11)	(186,31)	(187,10)	(-85,4)	(-189,3)	(-62,1)	(236,1)	(-166,1)	(417,1)	(201,1)	(405,1)	
L1D -180>	(1,16)	(2,2)	(0,29)	(186,12)	(241,2)	(-9,1)	(279,1)	(185,9)	(184,1)	(180,11)	(112,1)	(109,2)	(47,1)	(191,1)	(43,1)	(181,23)	
L1D -179>	(147,8)	(180,29)	(179,31)	(1,20)	(0,31)	(271,2)	(308,2)	(184,16)	(-199,2)	(121,2)	(318,2)	(-144,1)	(185,3)	(3,1)	(161,1)	(150,1)	
L1D -178>	(1,13)	(177,13)	(0,26)	(178,24)	(266,2)	(183,23)	(179,7)	(-1,2)	(-67,2)	(133,2)	(189,3)	(-7,1)	(-101,1)	(-16,1)	(20,1)	(202,1)	
L1D -177>	(0,30)	(175,2)	(176,8)	(165,1)	(1,12)	(420,2)	(178,17)	(332,5)	(93,1)	(248,1)	(-76,1)	(182,9)	(184,1)	(177,66)	(216,0)	(217,1)	
L1D -176>	(176,95)	(0,62)	(177,53)	(175,15)	(1,16)	(320,2)	(96,3)	(182,12)	(181,18)	(-1,3)	(109,2)	(-14,3)	(3,1)	(485,1)	(358,1)	(-102,4)	
L1D -175>	(175,32)	(176,29)	(0,38)	(22,6)	(177,3)	(386,9)	(181,30)	(419,3)	(21,3)	(1,23)	(2,4)	(180,12)	(-100,2)	(239,1)	(116,1)	(380,2)	
L1D -174>	(0,50)	(175,16)	(168,2)	(177,3)	(21,5)	(251,2)	(1,10)	(173,5)	(22,6)	(217,3)	(117,1)	(169,2)	(-12,1)	(180,9)	(179,2)	(174,45)	
L1D -173>	(0,31)	(173,24)	(174,14)	(177,2)	(179,22)	(162,2)	(1,13)	(21,4)	(22,3)	(40,4)	(81,13)	(-3,1)	(176,1)	(3,1)	(130,1)	(57,1)	
L1D -172>	(50,1)	(0,41)	(178,16)	(172,13)	(171,3)	(385,1)	(386,1)	(1,12)	(-5,1)	(219,2)	(163,1)	(173,6)	(222,2)	(64,6)	(122,1)	(-1,1)	
L1D -171>	(176,17)	(0,41)	(1,9)	(170,3)	(64,3)	(171,22)	(-1,2)	(177,12)	(-5,4)	(119,4)	(77,2)	(172,8)	(-52,1)	(-80,1)	(182,2)	(124,1)	
L1D -170>	(87,1)	(170,67)	(1,11)	(0,27)	(169,5)	(64,2)	(197,1)	(-91,1)	(77,1)	(176,14)	(175,10)	(65,1)	(-281,1)	(59,1)	(171,3)	(246,1)	
L1D -169>	(169,121)	(170,32)	(0,50)	(64,4)	(-8,2)	(168,7)	(-159,1)	(1,19)	(174,17)	(-9,2)	(-23,1)	(112,3)	(175,9)	(-145,1)	(56,1)	(305,1)	
L1D -168>	(1,19)	(240,2)	(64,5)	(194,3)	(184,2)	(168,54)	(167,4)	(0,47)	(-268,1)	(4,2)	(22,1)	(173,21)	(30,1)	(113,1)	(46,1)	(169,22)	
L1D -167>	(-81,2)	(167,43)	(1,16)	(-34,5)	(168,32)	(332,5)	(0,34)	(-60,3)	(178,2)	(-74,1)	(181,1)	(164,1)	(172,33)	(68,1)	(-14,1)	(210,2)	
L1D -166>	(171,21)	(166,16)	(167,6)	(0,22)	(165,10)	(-57,1)	(172,1)	(39,1)	(-75,1)	(-1,2)	(-126,1)	(-77,1)	(158,2)	(65,2)	(-15,2)	(-261,1)	
L1D -165>	(0,40)	(166,34)	(64,7)	(1,21)	(163,2)	(165,104)	(-72,1)	(164,10)	(176,4)	(65,1)	(-13,1)	(170,15)	(-35,1)	(171,15)	(135,2)	(-244,1)	
L1D -164>	(164,36)	(11,54)	(0,60)	(1,12)	(-52,7)	(236,2)	(163,7)	(-85,3)	(170,22)	(-24,5)	(169,15)	(-26,6)	(-86,2)	(-1,3)	(-11,1)	(165,23)	
L1D -163>	(11,50)	(0,70)	(-25,4)	(164,12)	(162,6)	(163,25)	(-23,2)	(10,54)	(181,1)	(1,16)	(169,24)	(-24,11)	(-5,1)	(64,1)	(-9,1)	(223,1)	
L1D -162>	(10,57)	(0,56)	(163,18)	(1,17)	(11,37)	(-25,3)	(155,3)	(168,15)	(-106,1)	(162,56)	(-14,1)	(167,3)	(-158,1)	(90,1)	(196,1)	(160,1)	
L1D -161>	(1,20)	(161,45)	(160,7)	(0,57)	(162,24)	(167,33)	(185,2)	(-1,2)	(-241,1)	(34,1)	(65,2)	(11,31)	(10,32)	(75,1)	(-24,4)	(-23,5)	
L1D -160>	(159,11)	(160,26)	(161,6)	(0,69)	(-46,28)	(-155,3)	(1,9)	(165,22)	(-85,2)	(-24,1)	(147,2)	(11,3)	(166,12)	(110,1)	(10,33)	(-77,2)	
L1D -159>	(159,66)	(1,19)	(0,51)	(-24,1)	(158,9)	(160,13)	(165,26)	(31,2)	(-92,1)	(61,1)	(164,21)	(75,1)	(-191,1)	(-58,1)	(82,2)	(161,1)	
L1D -158>	(159,30)	(157,7)	(158,69)	(0,76)	(1,27)	(163,12)	(26,2)	(164,12)	(-41,2)	(-35,3)	(-278,1)	(-2,1)	(-210,1)	(174,1)	(131,1)	(122,1)	
L1D -157>	(0,36)	(157,57)	(158,17)	(-106,2)	(156,1)	(17,1)	(198,2)	(61,1)	(72,13)	(3,1)	(162,30)	(1,14)	(148,1)	(107,2)	(66,1)	(130,2)	
L1D -156>	(0,32)	(154,2)	(125,2)	(157,13)	(237,3)	(241,6)	(-10,6)	(-177,12)	(161,32)	(-3,2)	(1,18)	(162,2)	(156,14)	(-1,3)	(220,1)	(28,1)	
L1D -155>	(0,44)	(154,8)	(219,2)	(2,2)	(155,36)	(160,16)	(-112,1)	(156,13)	(-77,1)	(161,2)	(-190,1)	(16,1)	(1,14)	(-84,1)	(-22,3)	(316,2)	
L1D -154>	(154,77)	(155,15)	(0,23)	(160,17)	(194,1)	(1,13)	(156,1)	(159,9)	(-164,2)	(153,1)	(218,1)	(260,1)	(201,1)	(-20,1)	(173,1)	(-12,1)	
L1D -153>	(159,21)	(0,38)	(227,3)	(154,26)	(300,3)	(158,13)	(130,3)	(1,22)	(208,1)	(161,2)	(285,2)	(259,2)	(140,2)	(141,2)	(153,15)	(-222,4)	
L1D -152>	(0,41)	(150,2)	(152,45)	(1,21)	(151,5)	(158,15)	(64,3)	(-52,2)	(153,4)	(-75,2)	(157,3)	(-8,4)	(-9,2)	(193,3)	(156,1)	(259,2)	
L1D -151>	(247,3)	(151,62)	(152,17)	(0,49)	(1,27)	(150,10)	(160,2)	(157,23)	(-31,3)	(-1,2)	(156,2)	(130,2)	(243,1)	(369,1)	(267,1)	(11,2)	
L1D -150>	(-245,1)	(145,2)	(0,25)	(150,70)	(146,1)	(149,5)	(155,2)	(1,11)	(415,1)	(183,2)	(403,1)	(-147,1)	(167,2)	(156,20)	(-195,1)	(151,21)	
L1D -149>	(155,16)	(-1,3)	(150,19)	(149,108)	(148,2)	(0,53)	(163,2)	(136,4)	(1,20)	(145,2)	(116,1)	(154,15)	(4,1)	(282,1)	(-231,1)	(151,1)	
L1D -148>	(148,62)	(149,48)	(1,40)	(-159,2)	(147,10)	(0,45)	(64,1)	(116,1)	(15,1)	(153,17)	(425,2)	(436,1)	(251,1)	(-118,1)	(150,1)	(154,10)	
L1D -147>	(147,67)	(148,13)	(0,36)	(241,3)	(1,32)	(152,27)	(-23,2)	(-143,1)	(-4,1)	(-9,2)	(281,1)	(158,2)	(174,1)	(-55,1)	(153,11)	(-193,1)	
L1D -146>	(1,62)	(286,1)	(-128,1)	(146,26)	(147,12)	(0,35)	(-3,1)	(151,24)	(272,1)	(118,1)	(-153,3)	(-7,1)	(360,1)	(162,1)	(145,7)	(97,1)	
L1D -145>	(0,37)	(145,35)	(1,70)	(209,2)	(146,12)	(334,2)	(381,2)	(11,2)	(150,30)	(144,4)	(91,1)	(23,1)	(127,1)	(-88,2)	(187,1)	(151,3)	
L1D -144>	(0,32)	(144,12)	(216,2)	(149,26)	(145,9)	(101,2)	(1,15)	(-126,12)	(15,3)	(192,2)	(157,1)	(-140,4)	(493,1)	(150,3)	(143,3)	(199,1)	
L1D -143>	(-25,3)	(0,44)	(1,19)	(143,33)	(-8,1)	(167,1)	(128,1)	(11,2)	(198,1)	(144,14)	(53,1)	(19,1)	(149,13)	(148,8)	(160,2)	(282,2)	
L1D -142>	(1,17)	(142,51)	(0,41)	(50,3)	(149,3)	(143,8)	(161,2)	(147,27)	(141,2)	(-271,3)	(144,5)	(-94,1)	(148,18)	(6,1)	(-296,1)	(64,2)	
L1D -141>	(0,38)	(141,81)	(142,13)	(193,1)	(149,1)	(1,30)	(147,19)	(168,1)	(146,4)	(140,6)	(81,1)	(174,1)	(-233,1)	(-111,2)	(10,1)	(355,1)	
L1D -140>	(1,24)	(0,72)	(140,34)	(146,23)	(139,6)	(-20,2)	(141,16)	(-143,2)	(-4,2)	(391,1)	(343,2)	(344,1)	(-33,2)	(-69,1)	(145,3)	(-31,1)	
L1D -139>	(0,45)	(140,14)	(139,26)	(1,33)	(11,3)	(10,2)	(-31,3)	(145,31)	(341,3)	(85,2)	(-112,1)	(-84,1)	(-5,1)	(132,1)	(131,1)	(-30,1)	
L1D -138>	(0,46)	(-278,2)	(1,29)	(138,20)	(21,3)	(-51,2)	(19,1)	(144,25)	(143,17)	(163,1)	(-33,1)	(96,4)	(-76,1)	(137,3)	(37,1)	(-2,1)	
L1D -137>	(1,50)	(0,42)	(142,19)	(135,4)	(143,18)	(137,23)	(138,12)	(-13,2)	(-3,3)	(54,2)	(64,2)	(-25,1)	(-24,1)	(-82,1)	(11,3)	(136,7)	
L1D -136>	(0,73)	(125,7)	(32,1)	(136,67)	(-6,2)	(137,15)	(142,35)	(141,27)	(-1,4)	(133,4)	(1,40)	(147,4)	(132,2)	(53,6)	(139,2)	(163,3)	
L1D -135>	(0,67)	(140,27)	(133,2)	(-1,10)	(1,23)	(141,2)	(266,1)	(-16,1)	(134,5)	(157,1)	(135,26)	(-109,1)	(137,1)	(106,1)	(382,1)	(136,15)	
L1D -134>	(-1,6)	(0,54)	(133,11)	(-109,3)	(136,6)	(137,3)	(121,1)	(139,26)	(72,43)	(134,57)	(1,24)	(135,11)	(-132,1)	(269,1)	(-112,1)	(270,2)	
L1D -133>	(-1,5)	(-181,2)	(133,81)	(-216,3)	(0,34)	(1,11)	(350,2)	(138,15)	(136,4)	(134,17)	(135,4)	(-89,1)	(-65,1)	(172,2)	(26,1)	(-69,1)	
L1D -132>	(131,10)	(1,21)	(0,46)	(138,23)	(111,3)	(137,27)	(133,24)	(132,47)	(-118,5)	(-117,3)	(266,2)	(-225,4)	(279,2)	(-30,1)	(72,2)	(117,1)	
L1D -131>	(136,20)	(1,24)	(-78,2)	(137,29)	(132,30)	(-1,6)	(0,50)	(-38,2)	(32,6)	(131,47)	(177,3)	(-118,2)	(-48,3)	(192,8)	(-92,2)	(148,2)	
L1D -130>	(0,39)	(129,8)	(131,12)	(-19,2)	(33,2)	(136,17)	(109,2)	(1,23)	(252,3)	(106,1)	(86,1)	(130,34)	(174,1)	(24,1)	(185,2)	(147,2)	
L1D -129>	(0,55)	(1,14)	(128,9)	(130,8)	(135,30)	(-31,3)	(134,2)	(32,1)	(-23,3)	(44,1)	(8,1)	(317,1)	(129,46)	(-114,1)	(14,2)	(34,1)	
L1D -128>	(1,67)	(127,2)	(0,22)	(-23,2)	(168,1)	(134,16)	(128,18)	(4,22)	(64,2)	(129,5)	(36,1)	(3,2)	(7,3)	(87,1)	(-62,1)	(139,1)	
L1D -127>	(127,57)	(133,21)	(2,55)	(128,21)	(-23,2)	(1,26)	(132,30)	(-157,1)	(0,41)	(41,1)	(6,51)	(17,1)	(-222,1)	(125,4)	(129,2)	(126,2)	
L1D -126>	(127,39)	(0,59)	(134,5)	(126,77)	(184,4)	(131,38)	(83,1)	(132,23)	(2,16)	(120,3)	(125,8)	(1,20)	(100,2)	(271,10)	(135,7)	(88,4)	
L1D -125>	(125,71)	(5,81)	(0,31)	(1,18)	(4,16)	(131,17)	(32,5)	(-118,3)	(134,4)	(-151,3)	(13,2)	(126,21)	(17,15)	(16,38)	(-73,2)	(130,17)	
L1D -124>	(124,34)	(-118,3)	(168,1)	(132,3)	(9,33)	(-175,4)	(0,21)	(-82,4)	(92,2)	(129,29)	(130,2)	(1,18)	(116,2)	(125,7)	(14,2)	(32,6)	
L1D -123>	(0,41)	(123,58)	(5,18)	(1,21)	(128,27)	(132,5)	(11,59)	(-175,9)	(214,6)	(17,15)	(16,20)	(178,4)	(6,6)	(322,6)	(92,1)	(124,15)	
L1D -122>	(10,2)	(127,27)	(0,45)	(123,11)	(133,2)	(32,8)	(105,2)	(114,4)	(121,4)	(350,4)	(11,5)	(-22,4)	(122,56)	(1,25)	(80,1)	(138,1)	
L1D -121>	(-23,2)	(0,47)	(121,68)	(122,10)	(-41,1)	(124,1)	(-30,1)	(32,5)	(-167,1)	(53,1)	(59,1)	(39,1)	(127,17)	(-3,1)	(1,12)	(126,14)	
L1D -120>	(1,24)	(120,44)	(121,19)	(126,45)	(412,2)	(128,3)	(0,38)	(-1,8)	(-24,8)	(170,8)	(-25,2)	(-124,4)	(125,27)	(119,11)	(110,1)	(107,1)	
L1D -119>	(125,13)	(119,46)	(120,28)	(0,50)	(8,2)	(141,6)	(72,5)	(153,3)	(-1,5)	(1,21)	(-210,4)	(-30,2)	(-20,5)	(18,15)	(19,2)	(36,1)	
L1D -118>	(24,1)	(-20,2)	(1,23)	(118,36)	(0,50)	(244,2)	(10,2)	(32,4)	(229,2)	(124,28)	(-61,12)	(250,4)	(210,8)	(247,8)	(119,10)	(170,2)	
L1D -117>	(117,42)	(0,70)	(32,10)	(118,12)	(-167,1)	(1,30)	(-2,3)	(-1,8)	(120,2)	(123,22)	(23,15)	(250,2)	(22,31)	(116,3)	(189,3)	(256,3)	
L1D -116>	(116,92)	(115,7)	(0,68)	(122,26)	(32,8)	(1,19)	(11,3)	(3,5)	(121,36)	(22,12)	(164,2)	(107,2)	(84,1)	(117,4)	(6,1)	(8,1)	
L1D -115>	(-1,6)	(114,11)	(1,18)	(0,61)	(120,37)	(115,19)	(116,17)	(309,2)	(121,34)	(158,2)	(-22,8)	(151,5)	(150,2)	(-313,1)	(67,2)	(8,3)	
L1D -114>	(1,27)	(0,65)	(114,55)	(115,15)	(-1,6)	(119,19)	(-240,5)	(120,34)	(125,2)	(-17,2)	(324,2)	(145,2)	(-9,3)	(150,2)	(32,6)	(203,4)	
L1D -113>	(118,36)	(113,40)	(0,42)	(114,30)	(112,5)	(32,7)	(108,5)	(-198,3)	(-1,2)	(55,1)	(1,20)	(407,1)	(140,2)	(-96,1)	(-26,1)	(82,1)	
L1D -112>	(1,20)	(111,11)	(117,20)	(112,46)	(96,2)	(107,4)	(23,5)	(32,8)	(108,3)	(113,14)	(33,3)	(62,2)	(0,33)	(165,2)	(-1,3)	(145,1)	
L1D -111>	(116,23)	(0,55)	(-39,4)	(372,21)	(65,26)	(104,5)	(1,33)	(110,8)	(111,64)	(-3,1)	(76,2)	(112,14)	(138,8)	(165,6)	(-12,3)	(22,10)	
L1D -110>	(115,16)	(1,38)	(65,71)	(34,4)	(-9,1)	(0,48)	(110,38)	(109,3)	(111,14)	(209,3)	(2,1)	(-229,1)	(99,1)	(116,20)	(255,1)	(32,8)	
L1D -109>	(0,21)	(1,38)	(-117,1)	(65,89)	(110,4)	(109,10)	(115,9)	(107,2)	(111,1)	(4,1)	(114,10)	(36,2)	(133,1)	(32,5)	(209,3)	(20,1)	
L1D -108>	(0,48)	(1,25)	(65,93)	(106,11)	(36,4)	(107,15)	(108,21)	(109,13)	(114,21)	(32,20)	(-12,3)	(34,6)	(113,2)	(33,2)	(-189,3)	(126,1)	
L1D -107>	(113,39)	(0,42)	(35,10)	(37,10)	(108,16)	(38,6)	(1,25)	(-83,1)	(141,4)	(32,40)	(143,2)	(96,3)	(65,5)	(36,3)	(40,2)	(107,57)	
L1D -106>	(-72,7)	(0,42)	(-100,10)	(32,75)	(112,31)	(106,59)	(107,32)	(34,16)	(35,6)	(42,5)	(36,8)	(65,10)	(33,16)	(-7,1)	(-1,4)	(1,21)	
L1D -105>	(106,14)	(105,24)	(35,13)	(36,10)	(1,17)	(65,7)	(34,21)	(0,66)	(111,28)	(-92,14)	(32,84)	(146,1)	(-239,7)	(18,8)	(110,45)	(37,8)	
L1D -104>	(104,25)	(0,57)	(105,12)	(-240,5)	(-99,1)	(38,3)	(65,11)	(-1,5)	(109,17)	(1,18)	(32,90)	(110,26)	(103,5)	(-16,4)	(33,8)	(34,7)	
L1D -103>	(103,54)	(33,16)	(32,87)	(1,31)	(76,3)	(200,7)	(36,7)	(132,1)	(105,4)	(109,21)	(34,8)	(65,53)	(35,8)	(0,74)	(104,51)	(102,6)	
L1D -102>	(0,53)	(1,34)	(32,90)	(102,47)	(-100,3)	(36,5)	(33,6)	(-6,1)	(107,41)	(34,5)	(-61,3)	(101,14)	(103,9)	(318,6)	(37,3)	(35,4)	
L1D -101>	(0,51)	(101,91)	(106,20)	(102,16)	(-7,3)	(-97,13)	(32,51)	(36,2)	(34,2)	(35,3)	(1,21)	(33,3)	(-54,4)	(99,2)	(100,8)	(115,1)	
L1D -100>	(32,78)	(100,116)	(101,38)	(0,65)	(-111,3)	(1,32)	(-93,9)	(99,5)	(90,2)	(-36,7)	(33,6)	(36,12)	(35,5)	(105,36)	(-109,2)	(188,1)	
L1D -99>	(33,4)	(0,83)	(293,2)	(34,7)	(35,9)	(104,37)	(100,13)	(1,21)	(32,64)	(105,43)	(99,47)	(98,8)	(15,4)	(113,2)	(-231,1)	(38,3)	
L1D -98>	(99,29)	(1,29)	(0,64)	(32,57)	(141,2)	(103,19)	(104,22)	(34,8)	(97,9)	(98,98)	(-67,4)	(-2,2)	(-339,2)	(-13,4)	(-8,1)	(65,6)	
L1D -97>	(103,16)	(33,12)	(237,3)	(1,21)	(32,58)	(0,63)	(396,7)	(125,2)	(97,65)	(-80,4)	(-10,2)	(98,12)	(107,4)	(175,3)	(113,2)	(96,11)	
L1D -96>	(32,103)	(0,11)	(-35,1)	(36,1)	(40,1)	(97,1)	(11,1)	(96,4)	(64,1)	(39,1)	(186,1)	(-32,1)	(102,9)	(-82,1)	(1,3)	(-103,4)	
L1D -95>	(101,34)	(-66,2)	(294,2)	(95,40)	(0,31)	(94,3)	(117,3)	(100,6)	(1,22)	(32,16)	(-1,2)	(96,16)	(103,2)	(432,1)	(-122,1)	(64,16)	
L1D -94>	(0,93)	(95,6)	(32,17)	(111,2)	(35,2)	(-85,2)	(37,2)	(99,43)	(-74,1)	(93,6)	(94,26)	(2,2)	(36,1)	(1,17)	(100,28)	(305,1)	
L1D -93>	(98,17)	(-8,1)	(93,54)	(-111,27)	(-90,13)	(-2,3)	(92,5)	(33,3)	(36,2)	(115,3)	(32,7)	(0,56)	(99,28)	(219,2)	(94,21)	(1,19)	
L1D -92>	(98,18)	(97,23)	(109,4)	(-101,15)	(0,58)	(1,28)	(93,10)	(-295,1)	(92,25)	(35,4)	(4,2)	(175,6)	(298,10)	(-210,2)	(32,15)	(138,2)	
L1D -91>	(92,19)	(34,5)	(0,49)	(96,43)	(1,23)	(90,12)	(-179,6)	(91,50)	(-118,17)	(129,2)	(127,1)	(4,1)	(33,3)	(32,13)	(87,1)	(186,1)	
L1D -90>	(95,41)	(0,63)	(90,118)	(1,24)	(-96,9)	(35,5)	(32,8)	(91,10)	(27,13)	(26,3)	(-2,4)	(-347,1)	(10,2)	(6,1)	(89,23)	(504,1)	
L1D -89>	(0,97)	(-2,3)	(89,38)	(7,1)	(94,4)	(90,17)	(1,7)	(3,1)	(84,0)	(91,0)	(245,0)	(234,0)	(-229,0)	(179,0)	(-16,0)	(-1,75)	
L1D -88>	(-2,120)	(1,109)	(-4,14)	(94,46)	(93,43)	(-73,3)	(0,77)	(-25,7)	(88,39)	(89,47)	(32,11)	(87,8)	(-114,5)	(100,3)	(-1,80)	(187,1)	
L1D -87>	(93,25)	(92,20)	(0,73)	(87,67)	(-9,3)	(32,8)	(88,28)	(137,3)	(-3,3)	(1,33)	(178,6)	(-124,4)	(86,6)	(27,5)	(28,3)	(293,1)	
L1D -86>	(1,71)	(85,6)	(40,4)	(92,35)	(87,28)	(0,36)	(32,9)	(-1,4)	(86,53)	(99,4)	(98,3)	(59,3)	(-34,1)	(-2,1)	(33,2)	(-4,1)	
L1D -85>	(0,56)	(85,47)	(-83,6)	(1,50)	(-156,3)	(-93,27)	(91,33)	(198,8)	(-4,4)	(134,1)	(32,5)	(86,29)	(-289,3)	(84,8)	(266,3)	(96,3)	
L1D -84>	(90,34)	(1,59)	(0,48)	(83,5)	(32,9)	(-156,6)	(-9,4)	(-260,5)	(122,2)	(81,3)	(-187,1)	(85,15)	(-277,1)	(95,2)	(84,40)	(410,1)	
L1D -83>	(88,40)	(89,41)	(-79,2)	(0,69)	(168,3)	(350,3)	(-1,11)	(-50,3)	(1,40)	(82,4)	(83,63)	(84,14)	(81,5)	(-82,2)	(122,1)	(35,1)	
L1D -82>	(0,72)	(87,36)	(327,3)	(161,9)	(-85,27)	(100,3)	(-81,1)	(88,41)	(83,21)	(1,63)	(-92,8)	(82,57)	(71,6)	(-23,2)	(80,2)	(81,10)	
L1D -81>	(-9,7)	(86,27)	(87,45)	(0,67)	(82,18)	(1,37)	(-200,2)	(28,5)	(138,3)	(163,2)	(81,18)	(-1,3)	(106,2)	(32,3)	(80,2)	(101,2)	
L1D -80>	(84,2)	(119,5)	(81,8)	(4,7)	(178,3)	(85,31)	(-1,8)	(80,40)	(79,9)	(0,52)	(86,2)	(170,1)	(1,29)	(-184,1)	(97,2)	(-407,1)	
L1D -79>	(85,2)	(0,41)	(4,5)	(214,3)	(84,48)	(-156,2)	(79,50)	(80,12)	(1,31)	(163,2)	(106,6)	(125,2)	(-41,2)	(284,5)	(-22,1)	(78,10)	
L1D -78>	(83,53)	(0,66)	(85,5)	(-189,2)	(84,4)	(-18,2)	(79,19)	(1,21)	(78,79)	(-41,3)	(122,2)	(316,3)	(34,1)	(-198,1)	(49,4)	(77,5)	
L1D -77>	(0,67)	(1,36)	(64,1)	(83,39)	(82,27)	(238,3)	(78,34)	(-8,10)	(77,67)	(32,3)	(73,2)	(325,6)	(-97,5)	(243,6)	(-39,3)	(-1,3)	
L1D -76>	(0,54)	(81,35)	(82,38)	(15,2)	(109,2)	(77,16)	(67,4)	(143,7)	(-174,3)	(-1,5)	(-8,8)	(-64,1)	(1,35)	(219,1)	(76,58)	(75,7)	
L1D -75>	(32,9)	(81,34)	(0,52)	(67,2)	(56,2)	(374,2)	(76,47)	(75,57)	(227,2)	(1,35)	(-41,2)	(-9,10)	(144,2)	(-256,1)	(55,1)	(39,4)	
L1D -74>	(80,42)	(0,55)	(78,3)	(75,26)	(34,5)	(4,14)	(32,7)	(1,29)	(73,14)	(-84,2)	(74,61)	(87,3)	(117,2)	(-40,2)	(79,16)	(226,1)	
L1D -73>	(79,29)	(32,20)	(0,63)	(36,3)	(-153,4)	(-179,3)	(-95,1)	(1,34)	(78,5)	(141,6)	(212,3)	(73,119)	(74,40)	(-40,4)	(72,8)	(-108,3)	
L1D -72>	(78,49)	(3,6)	(77,31)	(0,88)	(1,33)	(32,21)	(71,12)	(2,1)	(38,4)	(-67,3)	(72,95)	(35,3)	(34,3)	(-26,8)	(-58,3)	(73,28)	
L1D -71>	(-9,3)	(82,4)	(72,38)	(1,37)	(-8,27)	(0,86)	(70,16)	(76,34)	(77,40)	(-117,3)	(71,105)	(37,5)	(32,20)	(-153,3)	(-2,18)	(5,1)	
L1D -70>	(0,64)	(1,46)	(7,8)	(92,4)	(32,32)	(75,28)	(76,34)	(71,45)	(70,73)	(360,5)	(-9,1)	(34,6)	(37,4)	(69,20)	(99,2)	(214,2)	
L1D -69>	(0,70)	(359,3)	(32,16)	(4,13)	(94,3)	(69,60)	(1,24)	(74,41)	(123,1)	(70,31)	(68,15)	(12,46)	(-20,2)	(37,13)	(-119,5)	(36,5)	
L1D -68>	(1,51)	(73,43)	(4,3)	(51,5)	(52,3)	(69,31)	(0,69)	(-85,1)	(32,16)	(33,3)	(68,117)	(-110,2)	(36,13)	(-46,3)	(-1,3)	(67,28)	
L1D -67>	(0,89)	(1,35)	(67,125)	(35,12)	(72,55)	(127,4)	(66,25)	(-11,28)	(-73,11)	(4,2)	(-23,4)	(69,5)	(32,27)	(-32,3)	(68,54)	(-189,5)	
L1D -66>	(-8,11)	(72,24)	(64,2)	(1,35)	(66,75)	(-2,15)	(32,12)	(65,12)	(0,49)	(67,29)	(44,2)	(71,19)	(438,2)	(-76,5)	(34,6)	(159,1)	
L1D -65>	(0,65)	(-20,3)	(120,2)	(70,37)	(65,102)	(64,20)	(1,21)	(66,41)	(43,5)	(-2,13)	(-8,4)	(32,10)	(-41,2)	(71,21)	(124,1)	(-37,2)	
L1D -64>	(2,58)	(32,68)	(1,28)	(66,24)	(19,6)	(0,49)	(64,49)	(65,18)	(70,17)	(5,10)	(4,9)	(-37,2)	(63,3)	(71,1)	(-62,13)	(-2,8)	
L1D -63>	(67,20)	(120,2)	(68,1)	(1,51)	(3,121)	(4,13)	(62,3)	(0,17)	(69,6)	(-1,6)	(64,14)	(27,15)	(5,3)	(18,2)	(63,28)	(2,4)	
L1D -62>	(3,71)	(46,1)	(62,5)	(-61,21)	(2,1)	(67,57)	(-1,1)	(316,2)	(0,5)	(-361,0)	(68,1)	(1,4)	(18,1)	(63,6)	(70,1)	(-43,0)	
L1D -61>	(70,112)	(0,44)	(5,13)	(61,69)	(6,89)	(62,49)	(11,31)	(17,93)	(1,24)	(67,22)	(-2,6)	(81,29)	(68,10)	(66,16)	(-5,1)	(-1,3)	
L1D -60>	(1,46)	(73,31)	(-2,57)	(0,82)	(59,35)	(65,43)	(10,102)	(11,51)	(-8,1)	(17,16)	(14,30)	(60,90)	(5,23)	(-25,14)	(179,8)	(66,39)	
L1D -59>	(0,42)	(-108,1)	(1,11)	(65,24)	(-52,8)	(12,105)	(16,15)	(64,12)	(11,4)	(70,29)	(-67,5)	(59,24)	(60,8)	(74,44)	(-2,13)	(10,24)	
L1D -58>	(63,53)	(167,3)	(58,64)	(0,76)	(4,33)	(-2,30)	(2,5)	(16,51)	(-3,11)	(1,40)	(-13,1)	(57,14)	(59,35)	(-54,5)	(-1,10)	(12,11)	
L1D -57>	(-50,3)	(-2,26)	(1,97)	(0,92)	(130,3)	(5,15)	(15,80)	(57,91)	(-3,11)	(58,51)	(4,12)	(-209,1)	(62,44)	(-6,4)	(56,7)	(55,4)	
L1D -56>	(15,101)	(61,47)	(4,22)	(55,16)	(0,103)	(5,13)	(56,57)	(57,31)	(120,4)	(1,29)	(188,1)	(-25,5)	(66,3)	(72,4)	(-3,14)	(-22,9)	
L1D -55>	(14,84)	(61,42)	(-2,57)	(0,105)	(60,36)	(-8,25)	(1,85)	(55,126)	(54,36)	(-1,1)	(56,38)	(-22,11)	(58,5)	(91,9)	(6,5)	(20,11)	
L1D -54>	(0,56)	(-3,8)	(155,3)	(20,5)	(-6,1)	(54,82)	(55,36)	(14,27)	(53,26)	(-2,28)	(-65,2)	(60,16)	(-111,2)	(1,35)	(59,30)	(-23,19)	
L1D -53>	(24,108)	(-171,1)	(1,39)	(-40,6)	(0,50)	(59,14)	(23,34)	(87,94)	(13,27)	(-2,24)	(53,105)	(88,11)	(11,34)	(52,3)	(54,63)	(-10,4)	
L1D -52>	(13,43)	(4,24)	(52,66)	(0,49)	(11,1)	(51,6)	(178,4)	(87,12)	(1,25)	(53,43)	(57,38)	(23,34)	(3,12)	(58,17)	(-3,6)	(-63,3)	
L1D -51>	(0,41)	(51,106)	(12,24)	(-2,6)	(57,12)	(49,2)	(26,10)	(52,22)	(-3,6)	(17,10)	(19,1)	(2,1)	(50,7)	(3,1)	(4,1)	(1,31)	
L1D -50>	(-10,96)	(4,22)	(-11,111)	(49,5)	(1,15)	(-2,10)	(55,14)	(0,41)	(12,19)	(32,4)	(46,1)	(56,8)	(50,121)	(51,44)	(31,2)	(53,6)	
L1D -49>	(283,38)	(285,1)	(11,17)	(0,36)	(282,39)	(-2,34)	(-11,7)	(284,18)	(49,37)	(50,14)	(1,26)	(-10,109)	(-8,5)	(54,14)	(55,12)	(48,21)	
L1D -48>	(1,52)	(11,107)	(47,31)	(-290,15)	(-98,12)	(0,103)	(-130,5)	(44,1)	(-1,6)	(54,49)	(-3,13)	(180,3)	(73,5)	(48,114)	(49,53)	(53,32)	
L1D -47>	(1,8)	(4,6)	(47,72)	(-3,4)	(10,116)	(-81,1)	(48,2)	(0,9)	(65,14)	(-204,1)	(23,5)	(300,1)	(52,1)	(20,2)	(11,2)	(-2,2)	
L1D -46>	(0,14)	(46,78)	(51,6)	(10,11)	(94,1)	(-3,12)	(1,29)	(53,2)	(47,8)	(-41,2)	(45,1)	(3,3)	(65,23)	(11,2)	(4,1)	(206,1)	
L1D -45>	(6,8)	(0,126)	(65,76)	(9,94)	(44,52)	(-210,4)	(45,76)	(46,78)	(-294,1)	(50,43)	(-231,34)	(-295,39)	(43,5)	(-3,21)	(1,86)	(10,23)	
L1D -44>	(-2,26)	(45,18)	(51,2)	(0,78)	(1,25)	(49,11)	(5,2)	(9,30)	(43,47)	(44,54)	(-40,5)	(13,7)	(53,4)	(50,7)	(-8,13)	(-69,1)	
L1D -43>	(9,8)	(27,46)	(0,9)	(44,114)	(8,14)	(45,25)	(10,8)	(42,3)	(48,3)	(43,3)	(1,8)	(-8,4)	(58,1)	(32,5)	(18,1)	(-2,3)	
L1D -42>	(30,78)	(-15,1)	(42,3)	(8,9)	(11,1)	(3,2)	(0,1)	(2,2)	(36,1)	(1,13)	(13,2)	(-374,1)	(-3,1)	(43,6)	(284,1)	(41,3)	
L1D -41>	(7,85)	(42,44)	(4,41)	(-46,51)	(0,47)	(46,22)	(47,8)	(30,8)	(91,13)	(41,70)	(88,11)	(40,11)	(-3,18)	(1,9)	(33,1)	(34,17)	
L1D -40>	(7,74)	(40,29)	(46,9)	(34,11)	(38,1)	(1,9)	(2,2)	(0,27)	(-139,2)	(8,2)	(32,5)	(39,6)	(41,23)	(-3,6)	(81,2)	(33,2)	
L1D -39>	(-4,56)	(6,22)	(1,34)	(39,95)	(40,8)	(41,5)	(7,3)	(-2,6)	(36,2)	(0,13)	(17,1)	(9,30)	(-5,27)	(18,17)	(315,1)	(10,2)	
L1D -38>	(1,14)	(-2,25)	(6,66)	(60,1)	(-1,10)	(38,30)	(44,6)	(39,18)	(-8,10)	(37,16)	(32,7)	(0,21)	(34,10)	(-30,5)	(-21,7)	(43,2)	
L1D -37>	(0,42)	(5,115)	(-3,20)	(11,5)	(24,6)	(37,43)	(43,15)	(-91,4)	(36,17)	(1,16)	(42,4)	(38,50)	(39,17)	(-1,2)	(6,37)	(32,2)	
L1D -36>	(0,13)	(5,30)	(1,9)	(2,5)	(34,3)	(36,37)	(37,8)	(41,4)	(65,10)	(-9,1)	(-3,3)	(20,4)	(60,3)	(10,5)	(4,4)	(49,110)	
L1D -35>	(32,1)	(-57,1)	(35,23)	(36,45)	(1,4)	(0,22)	(40,5)	(34,2)	(-115,1)	(8,50)	(33,5)	(4,1)	(5,105)	(-3,12)	(42,7)	(10,3)	
L1D -34>	(31,127)	(3,1)	(5,4)	(-119,1)	(34,3)	(-7,1)	(-10,1)	(36,1)	(32,2)	(4,5)	(38,1)	(35,8)	(18,3)	(0,11)	(-3,2)	(-8,1)	
L1D -33>	(-10,16)	(-2,15)	(10,121)	(-12,1)	(0,47)	(5,12)	(36,36)	(35,12)	(-8,16)	(-6,55)	(33,36)	(39,13)	(34,64)	(32,23)	(-3,11)	(1,14)	
L1D -32>	(32,90)	(0,51)	(35,38)	(74,1)	(-2,14)	(3,6)	(-32,7)	(6,52)	(33,82)	(34,13)	(64,8)	(38,6)	(1,12)	(41,7)	(-23,5)	(-3,8)	
L1D -31>	(38,3)	(13,7)	(-4,10)	(-59,3)	(249,2)	(-185,3)	(1,32)	(10,120)	(30,2)	(0,19)	(31,17)	(-7,22)	(-23,4)	(40,1)	(116,1)	(32,69)	
L1D -30>	(0,58)	(-4,24)	(31,106)	(10,42)	(4,69)	(-9,4)	(-14,36)	(29,14)	(28,1)	(-1,7)	(30,112)	(1,21)	(3,18)	(2,3)	(32,26)	(24,91)	
L1D -29>	(30,117)	(0,57)	(29,104)	(19,2)	(7,5)	(1,15)	(32,20)	(-7,9)	(28,19)	(17,49)	(35,9)	(60,3)	(10,21)	(2,5)	(-10,36)	(31,29)	
L1D -28>	(22,16)	(-18,64)	(28,78)	(-20,1)	(16,37)	(1,61)	(-7,3)	(0,61)	(33,8)	(7,5)	(31,9)	(27,13)	(-9,44)	(-6,5)	(-8,97)	(29,19)	
L1D -27>	(10,117)	(27,12)	(-2,15)	(1,43)	(-1,2)	(28,3)	(-47,2)	(0,46)	(-52,3)	(-8,24)	(26,7)	(-10,1)	(-30,1)	(-24,2)	(-9,4)	(21,47)	
L1D -26>	(10,57)	(18,35)	(0,17)	(30,11)	(-1,4)	(-82,3)	(7,6)	(1,3)	(32,5)	(26,8)	(12,127)	(3,17)	(-14,2)	(19,44)	(13,58)	(25,2)	
L1D -25>	(-28,2)	(0,43)	(4,30)	(10,109)	(-7,20)	(26,9)	(30,13)	(1,20)	(25,74)	(18,4)	(12,2)	(-10,6)	(24,10)	(-36,3)	(3,4)	(5,7)	
L1D -24>	(10,24)	(-18,71)	(-7,10)	(3,1)	(-14,1)	(27,1)	(18,2)	(-69,2)	(396,1)	(4,1)	(49,2)	(-8,1)	(32,1)	(24,1)	(25,1)	(0,2)	
L1D -23>	(-16,44)	(-19,23)	(-22,18)	(-11,12)	(11,8)	(7,26)	(-12,12)	(9,2)	(43,29)	(8,6)	(38,24)	(16,123)	(23,6)	(-20,21)	(54,5)	(0,8)	
L1D -22>	(6,103)	(25,1)	(-9,3)	(192,1)	(10,8)	(0,5)	(-1,1)	(27,2)	(24,1)	(-11,1)	(5,1)	(-21,1)	(1,1)	(22,4)	(-52,1)	(-8,1)	
L1D -21>	(0,48)	(21,102)	(14,17)	(13,63)	(-47,1)	(-1,3)	(1,12)	(-2,10)	(-10,7)	(26,3)	(20,6)	(5,37)	(23,2)	(22,18)	(36,9)	(6,16)	
L1D -20>	(-6,11)	(19,5)	(43,9)	(-10,3)	(33,107)	(0,8)	(10,35)	(4,23)	(13,26)	(11,1)	(12,21)	(1,9)	(3,2)	(20,18)	(21,4)	(-61,1)	
L1D -19>	(-10,3)	(-40,2)	(4,114)	(2,1)	(0,8)	(1,2)	(18,6)	(5,8)	(6,6)	(19,22)	(20,8)	(-1,9)	(21,23)	(24,2)	(34,18)	(13,3)	
L1D -18>	(1,120)	(-80,1)	(174,1)	(25,1)	(19,9)	(57,1)	(18,16)	(35,1)	(-1,2)	(91,2)	(9,1)	(17,3)	(-9,3)	(-79,0)	(47,1)	(0,3)	
L1D -17>	(9,77)	(16,1)	(-1,3)	(91,1)	(-16,2)	(40,56)	(1,6)	(-15,11)	(2,12)	(12,6)	(-10,3)	(17,29)	(18,17)	(0,17)	(23,1)	(35,1)	
L1D -16>	(-4,86)	(16,16)	(17,2)	(11,1)	(13,1)	(2,3)	(-8,1)	(-5,12)	(8,1)	(1,2)	(-63,1)	(0,6)	(-52,1)	(18,3)	(-1,3)	(-7,4)	
L1D -15>	(2,4)	(-5,51)	(-15,49)	(455,1)	(-4,47)	(15,19)	(18,10)	(-1,16)	(30,30)	(44,18)	(21,4)	(0,8)	(-13,5)	(6,1)	(1,89)	(16,7)	
L1D -14>	(-10,1)	(15,67)	(0,73)	(14,115)	(2,11)	(12,12)	(25,9)	(39,7)	(7,7)	(13,9)	(16,16)	(8,15)	(-6,27)	(1,11)	(-5,13)	(6,27)	
L1D -13>	(-14,2)	(13,20)	(-10,91)	(21,6)	(0,45)	(1,4)	(15,5)	(-11,6)	(-4,3)	(2,1)	(33,3)	(-13,4)	(12,11)	(-20,2)	(14,5)	(42,1)	
L1D -12>	(11,19)	(8,16)	(13,33)	(12,104)	(1,9)	(0,70)	(-14,12)	(3,15)	(-58,1)	(-15,47)	(2,10)	(10,3)	(15,16)	(-11,106)	(6,20)	(-8,17)	
L1D -11>	(1,41)	(27,1)	(21,2)	(18,81)	(0,25)	(-10,4)	(11,55)	(13,13)	(12,18)	(8,22)	(26,8)	(-5,9)	(20,16)	(-8,20)	(-1,9)	(36,25)	
L1D -10>	(39,11)	(16,82)	(18,4)	(10,36)	(8,23)	(2,11)	(9,10)	(19,5)	(11,12)	(7,3)	(4,11)	(-2,1)	(-14,2)	(6,2)	(-12,4)	(0,11)	
L1D -9>	(-3,83)	(10,21)	(7,9)	(1,39)	(9,120)	(-11,17)	(4,1)	(-16,7)	(0,16)	(-14,4)	(8,2)	(2,6)	(15,3)	(29,2)	(12,13)	(-13,2)	
L1D -8>	(-6,8)	(-1,9)	(9,66)	(8,73)	(-3,10)	(-89,1)	(0,27)	(12,10)	(10,94)	(1,26)	(-2,8)	(21,23)	(14,9)	(2,15)	(7,6)	(159,3)	
L1D -7>	(-1,3)	(5,3)	(6,1)	(20,20)	(9,34)	(0,7)	(1,74)	(10,6)	(-32,0)	(12,1)	(13,2)	(7,9)	(8,2)	(3,1)	(26,2)	(17,2)	
L1D -6>	(-6,80)	(-11,86)	(-132,1)	(2,9)	(-4,16)	(8,9)	(-5,66)	(5,40)	(3,64)	(15,27)	(6,49)	(4,12)	(1,16)	(0,43)	(9,76)	(7,20)	
L1D -5>	(3,115)	(-6,29)	(-2,6)	(-11,2)	(2,6)	(18,20)	(4,36)	(5,36)	(21,57)	(-1,15)	(-7,1)	(26,22)	(-5,3)	(1,17)	(0,34)	(13,29)	
L1D -4>	(-3,1)	(-2,9)	(34,8)	(-7,7)	(4,49)	(12,10)	(3,8)	(-1,126)	(9,1)	(6,3)	(-24,42)	(0,33)	(5,6)	(2,31)	(1,7)	(8,25)	
L1D -3>	(11,2)	(8,7)	(3,102)	(7,5)	(-24,1)	(1,10)	(5,4)	(4,5)	(6,2)	(0,12)	(-9,6)	(2,24)	(-3,2)	(-2,1)	(14,1)	(12,37)	
L1D -2>	(-64,1)	(2,72)	(1,60)	(-4,2)	(3,12)	(4,9)	(-7,2)	(5,1)	(-1,17)	(-12,1)	(0,71)	(-89,1)	(-17,0)	(-6,1)	(-3,2)	(-5,3)	
L1D -1>	(8,2)	(1,28)	(2,13)	(21,4)	(0,68)	(-63,0)	(-3,1)	(13,3)	(-25,0)	(4,1)	(-7,30)	(-1,2)	(-4,0)	(3,3)	(6,1)	(10,0)	
L1D 0>	(0,113)	(151,1)	(1,68)	(2,3)	(89,1)	(-115,1)	(-2,8)	(-1,41)	(39,1)	(33,1)	(-3,1)	(-4,1)	(-32,1)	(-18,1)	(-17,2)	(-124,1)	
L1D 1>	(-1,31)	(-4,2)	(1,102)	(0,83)	(-18,2)	(-2,19)	(-33,1)	(-15,2)	(38,1)	(4,5)	(49,2)	(-19,1)	(8,22)	(3,2)	(20,1)	(2,7)	
L1D 2>	(-1,68)	(-5,65)	(-6,20)	(1,86)	(6,1)	(0,33)	(2,27)	(-98,1)	(-3,60)	(-2,79)	(-4,34)	(4,10)	(3,5)	(10,5)	(-15,4)	(16,1)	
L1D 3>	(2,94)	(-40,1)	(69,5)	(3,2)	(47,16)	(-4,7)	(1,6)	(-3,80)	(-2,119)	(46,15)	(-5,9)	(-1,32)	(5,3)	(4,11)	(-7,4)	(0,76)	
L1D 4>	(-1,62)	(-6,15)	(8,1)	(1,86)	(-4,99)	(0,11)	(31,14)	(3,47)	(-12,7)	(4,10)	(-11,16)	(-9,8)	(15,2)	(-5,77)	(9,9)	(-7,21)	
L1D 5>	(-1,40)	(-5,66)	(24,50)	(-60,6)	(6,86)	(-2,9)	(-4,56)	(0,79)	(33,17)	(32,23)	(-16,21)	(-21,1)	(8,20)	(1,39)	(-6,24)	(-10,5)	
L1D 6>	(8,4)	(-14,8)	(33,11)	(34,9)	(28,2)	(1,9)	(5,30)	(9,19)	(-5,78)	(-13,11)	(-55,2)	(-12,4)	(16,23)	(-6,50)	(0,27)	(32,1)	
L1D 7>	(-6,101)	(3,2)	(-2,8)	(-7,61)	(-13,8)	(-3,10)	(-8,26)	(34,27)	(35,26)	(-4,16)	(24,24)	(-1,32)	(0,49)	(1,28)	(-14,23)	(32,10)	
L1D 8>	(-32,4)	(-3,1)	(21,3)	(1,34)	(2,1)	(3,7)	(-1,103)	(-42,7)	(-12,6)	(6,1)	(-8,6)	(35,2)	(18,1)	(0,10)	(-7,4)	(10,7)	
L1D 9>	(-6,21)	(0,15)	(20,7)	(-10,3)	(-7,4)	(10,6)	(-12,7)	(-8,10)	(-9,77)	(6,15)	(16,6)	(1,2)	(36,2)	(85,1)	(-1,26)	(-2,39)	
L1D 10>	(18,13)	(-6,121)	(3,54)	(8,17)	(0,40)	(-13,1)	(-22,88)	(-12,53)	(-16,112)	(-4,51)	(7,36)	(-3,36)	(-11,16)	(-5,9)	(15,31)	(-1,24)	
L1D 11>	(9,1)	(-10,12)	(10,9)	(23,20)	(0,81)	(-11,52)	(-12,10)	(1,15)	(-6,28)	(3,82)	(154,15)	(-1,11)	(6,6)	(-5,10)	(-7,6)	(5,13)	
L1D 12>	(-6,8)	(13,22)	(-13,20)	(-4,6)	(-11,7)	(-27,16)	(23,3)	(0,7)	(10,6)	(14,4)	(-12,13)	(-7,1)	(-10,4)	(-9,89)	(-2,6)	(-1,7)	
L1D 13>	(-32,12)	(13,96)	(-13,104)	(-26,9)	(20,5)	(-10,11)	(40,3)	(-4,11)	(-33,15)	(0,3)	(-9,3)	(-1,3)	(-19,3)	(18,4)	(-23,11)	(-5,1)	
L1D 14>	(1,13)	(-13,28)	(0,36)	(-14,56)	(-7,9)	(20,18)	(-1,15)	(-5,10)	(42,13)	(19,11)	(-4,53)	(-23,79)	(41,13)	(-15,6)	(-9,2)	(-2,19)	
L1D 15>	(-15,55)	(1,13)	(0,33)	(43,1)	(-26,86)	(5,72)	(-8,9)	(-12,34)	(42,10)	(23,11)	(-13,14)	(-11,18)	(-14,28)	(2,35)	(-9,14)	(-10,17)	
L1D 16>	(-20,19)	(-23,25)	(-17,67)	(0,30)	(-19,6)	(15,7)	(-22,26)	(-8,115)	(1,1)	(-5,6)	(23,125)	(-21,31)	(-16,28)	(-145,2)	(-15,15)	(-6,7)	
L1D 17>	(18,97)	(-11,10)	(-6,41)	(5,22)	(-24,11)	(65,7)	(-16,21)	(-9,15)	(-15,20)	(-17,29)	(23,21)	(-67,3)	(0,39)	(1,10)	(24,16)	(-14,1)	
L1D 18>	(-15,119)	(-6,43)	(-11,68)	(18,42)	(2,23)	(-31,1)	(65,12)	(-16,21)	(0,11)	(-19,9)	(-3,7)	(-293,11)	(-36,6)	(-18,26)	(-10,30)	(12,21)	
L1D 19>	(-19,94)	(-17,10)	(-295,9)	(-20,70)	(-18,33)	(1,33)	(-9,28)	(-26,114)	(6,1)	(-8,103)	(23,53)	(0,95)	(-1,25)	(65,29)	(-22,63)	(-359,12)	
L1D 20>	(-33,3)	(-16,2)	(-22,5)	(-26,18)	(-43,103)	(0,5)	(-21,9)	(-41,1)	(-20,5)	(-4,24)	(-7,102)	(-31,1)	(-30,1)	(-19,5)	(1,5)	(6,2)	
L1D 21>	(-15,8)	(-16,72)	(-20,2)	(-26,1)	(1,1)	(0,4)	(-19,0)	(-5,1)	(15,4)	(-21,2)	(-22,22)	(-28,0)	(-234,0)	(-6,0)	(-7,3)	(-60,0)	
L1D 22>	(12,30)	(8,1)	(-23,5)	(0,51)	(-24,7)	(3,23)	(-16,5)	(-21,15)	(-54,3)	(19,5)	(-6,14)	(-237,12)	(-22,70)	(6,3)	(-1,9)	(1,21)	
L1D 23>	(-26,4)	(-23,3)	(-366,3)	(-110,10)	(-46,6)	(-4,113)	(-303,4)	(-239,3)	(-109,1)	(19,6)	(-22,3)	(18,15)	(0,6)	(-39,9)	(1,3)	(-238,2)	
L1D 24>	(-47,20)	(-6,1)	(-35,4)	(-25,28)	(-27,22)	(-1,112)	(-240,6)	(-36,2)	(17,2)	(259,1)	(-22,1)	(-24,6)	(0,8)	(-23,2)	(1,3)	(-31,2)	
L1D 25>	(-1,49)	(-36,15)	(-37,2)	(-14,51)	(-51,9)	(-7,19)	(1,25)	(-26,7)	(0,54)	(-93,1)	(-3,2)	(-25,69)	(-24,40)	(-22,18)	(-33,2)	(-31,2)	
L1D 26>	(-25,3)	(-9,104)	(0,11)	(-13,2)	(-14,1)	(-92,1)	(-16,1)	(-26,5)	(-12,1)	(-102,1)	(6,2)	(5,2)	(65,1)	(1,5)	(-5,1)	(-32,1)	
L1D 27>	(-5,4)	(-9,92)	(-27,12)	(-2,2)	(1,16)	(0,15)	(-29,4)	(-34,2)	(-18,1)	(7,1)	(-51,1)	(-11,1)	(-6,4)	(-23,3)	(-26,6)	(-14,1)	
L1D 28>	(-1,41)	(-28,104)	(-27,40)	(1,39)	(0,105)	(-29,17)	(-6,21)	(5,26)	(-41,1)	(13,5)	(-36,39)	(-15,111)	(-24,14)	(-34,11)	(-31,3)	(-22,4)	
L1D 29>	(-7,82)	(7,1)	(-34,10)	(-22,2)	(0,36)	(-29,35)	(-31,12)	(-42,1)	(-1,8)	(-12,9)	(1,28)	(-28,30)	(-9,1)	(3,1)	(-36,7)	(6,2)	
L1D 30>	(-20,96)	(13,28)	(0,17)	(-28,10)	(-36,15)	(11,1)	(-1,3)	(-27,13)	(-30,6)	(1,4)	(-35,7)	(-34,1)	(-32,2)	(-29,11)	(55,1)	(-33,2)	
L1D 31>	(-31,85)	(65,5)	(-35,28)	(-34,2)	(29,1)	(1,8)	(0,10)	(-38,1)	(7,4)	(-2,1)	(-1,4)	(-6,3)	(-30,8)	(-7,5)	(-17,1)	(-29,2)	
L1D 32>	(0,58)	(-32,23)	(32,70)	(-96,3)	(2,2)	(-4,5)	(28,1)	(1,9)	(-30,1)	(34,3)	(33,3)	(-31,8)	(3,4)	(-36,3)	(35,3)	(-37,24)	
L1D 33>	(-39,106)	(0,49)	(-23,90)	(-32,5)	(-38,29)	(32,8)	(-1,4)	(-42,3)	(1,9)	(-30,2)	(-6,2)	(3,3)	(-43,16)	(-19,1)	(-33,26)	(-36,2)	
L1D 34>	(-42,17)	(-34,48)	(-36,35)	(0,37)	(-29,8)	(-40,30)	(-28,16)	(-43,5)	(-12,66)	(-41,25)	(32,14)	(-33,7)	(-44,1)	(1,21)	(-35,16)	(8,3)	
L1D 35>	(-38,20)	(0,67)	(-173,2)	(-35,68)	(-43,44)	(-1,7)	(-42,83)	(32,22)	(25,26)	(-45,3)	(-34,26)	(1,26)	(-31,8)	(-21,3)	(5,9)	(-41,4)	
L1D 36>	(0,35)	(1,25)	(-36,99)	(-35,20)	(-15,46)	(-39,14)	(-44,13)	(32,20)	(5,11)	(24,18)	(-46,1)	(-13,21)	(-32,11)	(-9,53)	(-31,19)	(-1,20)	
L1D 37>	(0,96)	(32,34)	(-46,40)	(5,21)	(6,27)	(-37,52)	(1,40)	(-39,3)	(-12,1)	(33,9)	(-47,45)	(-32,10)	(-1,10)	(-34,9)	(-36,42)	(-42,10)	
L1D 38>	(-24,6)	(0,35)	(-49,18)	(-39,80)	(-4,7)	(-60,4)	(-42,13)	(-5,1)	(-38,49)	(-3,6)	(-35,3)	(-37,9)	(1,22)	(-23,127)	(-48,25)	(32,7)	
L1D 39>	(0,87)	(-50,9)	(-51,7)	(-38,9)	(-46,9)	(-5,1)	(-39,79)	(-1,3)	(36,1)	(-42,14)	(32,3)	(3,2)	(1,8)	(2,2)	(-4,46)	(61,1)	
L1D 40>	(-42,2)	(-52,7)	(-4,67)	(-55,3)	(-53,12)	(-39,5)	(0,14)	(-40,14)	(32,5)	(-7,1)	(1,5)	(-34,1)	(12,1)	(6,3)	(-6,4)	(-51,1)	
L1D 41>	(0,80)	(-42,6)	(1,35)	(-8,10)	(-55,36)	(6,11)	(-41,89)	(32,4)	(-7,1)	(-2,4)	(-40,20)	(-1,19)	(-54,28)	(-38,18)	(-27,5)	(-50,3)	
L1D 42>	(-7,13)	(0,110)	(-57,67)	(-6,10)	(-28,7)	(1,57)	(-4,76)	(-42,98)	(-1,29)	(-56,64)	(-41,31)	(6,1)	(-38,27)	(-39,16)	(-35,9)	(-66,6)	
L1D 43>	(-31,16)	(-39,9)	(-4,75)	(0,93)	(-28,11)	(-46,1)	(-42,105)	(-43,43)	(-13,92)	(-23,22)	(1,78)	(-44,13)	(2,10)	(-58,26)	(-16,44)	(-12,30)	
L1D 44>	(-42,89)	(-11,1)	(0,4)	(-43,1)	(-44,1)	(-34,0)	(-49,0)	(-7,0)	(-12,5)	(-47,0)	(-22,2)	(-6,0)	(-1,1)	(1,1)	(3,0)	(5,0)	
L1D 45>	(-62,11)	(-45,27)	(-44,6)	(0,32)	(-46,2)	(6,2)	(1,16)	(-47,2)	(-23,16)	(-1,124)	(5,3)	(-63,6)	(-34,1)	(-36,2)	(-92,1)	(-66,1)	
L1D 46>	(-46,84)	(-49,67)	(0,16)	(-30,7)	(-23,4)	(5,3)	(1,8)	(18,1)	(-31,2)	(-56,1)	(-59,9)	(-66,1)	(-35,2)	(-45,1)	(-60,10)	(-64,1)	
L1D 47>	(-50,68)	(-47,79)	(-154,1)	(-55,1)	(-57,1)	(0,21)	(-1,1)	(1,2)	(5,2)	(-56,1)	(-35,1)	(52,0)	(-43,3)	(-61,9)	(-44,3)	(-60,8)	
L1D 48>	(5,37)	(0,117)	(-48,64)	(-47,25)	(-37,13)	(6,27)	(1,30)	(-49,6)	(-45,2)	(3,3)	(16,1)	(-51,6)	(-55,1)	(-44,5)	(-1,3)	(-50,8)	
L1D 49>	(-34,71)	(-11,0)	(-47,26)	(-46,0)	(-54,0)	(-29,0)	(-51,0)	(0,1)	(-50,0)	(-12,0)	(1,0)	(49,0)	(-37,0)	(-48,3)	(-5,0)	(320,0)	
L1D 50>	(-2,2)	(-50,108)	(5,7)	(0,48)	(-91,3)	(6,7)	(-49,13)	(-52,2)	(-60,3)	(-51,2)	(-53,6)	(-18,5)	(-19,3)	(-1,7)	(1,15)	(-34,2)	
L1D 51>	(-50,55)	(-53,3)	(-39,2)	(0,87)	(-51,120)	(-54,6)	(6,12)	(-19,2)	(-26,7)	(17,2)	(-98,6)	(1,42)	(-2,16)	(-1,16)	(28,1)	(-52,2)	
L1D 52>	(-62,2)	(5,4)	(0,45)	(-52,65)	(-49,17)	(-55,2)	(6,9)	(-1,3)	(1,18)	(-32,1)	(-51,19)	(-48,1)	(-27,4)	(-113,1)	(-53,3)	(193,0)	
L1D 53>	(0,108)	(1,95)	(6,51)	(-1,37)	(-49,37)	(-220,8)	(-52,33)	(76,8)	(-61,9)	(-42,25)	(83,4)	(-64,1)	(5,9)	(-53,124)	(19,2)	(-3,2)	
L1D 54>	(1,70)	(5,7)	(-129,1)	(-54,52)	(0,44)	(6,4)	(-55,1)	(-57,2)	(-8,0)	(43,1)	(65,0)	(-56,0)	(-2,4)	(127,0)	(-1,6)	(-53,34)	
L1D 55>	(-66,4)	(-55,97)	(6,10)	(0,59)	(-54,29)	(-1,13)	(5,10)	(-56,7)	(-142,3)	(-107,4)	(-11,1)	(-27,2)	(-83,4)	(-16,3)	(-321,2)	(1,16)	
L1D 56>	(5,18)	(20,2)	(-56,87)	(-59,7)	(0,66)	(1,34)	(-60,3)	(-55,34)	(-88,3)	(-2,3)	(-1,6)	(-349,3)	(-75,4)	(-41,1)	(-72,5)	(-229,1)	
L1D 57>	(0,99)	(5,32)	(-58,5)	(-59,6)	(4,1)	(-56,24)	(1,43)	(-57,102)	(-44,2)	(-17,2)	(-11,2)	(-54,7)	(-64,2)	(-60,3)	(6,17)	(-41,3)	
L1D 58>	(-55,15)	(0,62)	(-58,73)	(1,23)	(5,20)	(-57,21)	(-1,10)	(-54,20)	(-59,12)	(-56,3)	(6,8)	(-61,3)	(-121,2)	(14,2)	(-42,1)	(-186,1)	
L1D 59>	(-59,106)	(-61,11)	(6,31)	(-136,1)	(0,83)	(-62,4)	(5,51)	(-79,3)	(-87,7)	(-64,6)	(1,30)	(11,3)	(-166,2)	(-283,2)	(-97,2)	(-58,16)	
L1D 60>	(5,27)	(0,96)	(1,30)	(-85,3)	(-55,5)	(-59,4)	(6,25)	(-106,1)	(80,3)	(-61,15)	(-29,12)	(-87,3)	(-32,2)	(-60,98)	(-62,5)	(-1,6)	
L1D 61>	(-61,75)	(5,11)	(6,17)	(-77,2)	(0,56)	(-64,1)	(1,25)	(-1,4)	(-60,8)	(-62,3)	(-29,2)	(-65,1)	(65,34)	(-55,1)	(-27,2)	(-21,2)	
L1D 62>	(-94,1)	(-69,2)	(6,15)	(51,6)	(0,68)	(-62,70)	(-61,87)	(-1,6)	(-72,2)	(-87,2)	(-63,7)	(-65,7)	(-175,3)	(-43,9)	(65,17)	(1,51)	
L1D 63>	(-62,29)	(1,32)	(-63,66)	(-2,4)	(6,10)	(65,76)	(-64,10)	(-60,8)	(-119,2)	(-1,11)	(0,29)	(-36,7)	(-139,2)	(12,1)	(-91,1)	(-66,5)	
L1D 64>	(6,11)	(2,3)	(4,8)	(-63,110)	(1,76)	(65,27)	(64,41)	(-64,21)	(-32,9)	(0,50)	(-127,15)	(-96,8)	(83,1)	(-60,20)	(283,2)	(-1,3)	
L1D 65>	(0,118)	(-128,9)	(187,1)	(-65,6)	(-64,9)	(-62,39)	(-123,3)	(-101,1)	(-127,4)	(4,2)	(-131,1)	(-60,6)	(2,11)	(1,12)	(-59,7)	(-63,18)	
L1D 66>	(-66,70)	(-60,14)	(6,9)	(2,8)	(5,10)	(1,15)	(-48,3)	(-126,3)	(-2,5)	(0,40)	(-71,2)	(-1,3)	(-65,40)	(55,2)	(-127,5)	(29,1)	
L1D 67>	(5,125)	(4,24)	(-66,35)	(-59,115)	(-124,22)	(0,50)	(1,22)	(-67,65)	(-2,5)	(-123,41)	(17,61)	(-47,49)	(14,23)	(-296,1)	(-91,3)	(-1,10)	
L1D 68>	(0,92)	(6,5)	(5,31)	(-87,3)	(-68,98)	(1,41)	(9,25)	(-69,3)	(-119,15)	(-1,7)	(-67,63)	(-2,2)	(11,1)	(-19,1)	(-396,1)	(-26,1)	
L1D 69>	(-119,2)	(-53,70)	(0,19)	(5,7)	(1,7)	(-69,18)	(10,3)	(11,28)	(-68,2)	(-67,1)	(-54,1)	(-65,3)	(-117,8)	(20,1)	(-70,3)	(-71,1)	
L1D 70>	(-53,69)	(6,10)	(11,8)	(-80,1)	(-69,8)	(5,8)	(1,7)	(-117,3)	(-1,3)	(0,28)	(-221,1)	(-54,2)	(-16,1)	(-70,24)	(-71,1)	(-198,1)	
L1D 71>	(1,31)	(-79,3)	(-75,7)	(-71,122)	(0,60)	(-49,20)	(6,16)	(5,21)	(-21,3)	(-94,3)	(-70,51)	(-93,1)	(-1,14)	(-2,5)	(-238,2)	(-69,9)	
L1D 72>	(-72,119)	(92,13)	(5,18)	(-71,39)	(-75,4)	(30,4)	(-31,28)	(0,67)	(1,23)	(49,1)	(-37,5)	(8,3)	(-1,12)	(-272,3)	(6,18)	(-73,3)	
L1D 73>	(-48,31)	(-49,1)	(0,74)	(6,21)	(-46,9)	(-30,9)	(-217,2)	(1,39)	(-45,9)	(-4,2)	(-73,96)	(-81,2)	(-72,33)	(-339,4)	(-123,3)	(-1,25)	
[...]
L1D 481>	(0,3)	(1,1)	(-375,1)	(-282,1)	(1,0)	(1,0)	(1,0)	(1,0)	(1,0)	(1,0)	(1,0)	(1,0)	(1,0)	(1,0)	(1,0)	(1,0)	
L1D 482>	(1,1)	(-253,1)	(-298,1)	(0,1)	(1,0)	(1,0)	(1,0)	(1,0)	(1,0)	(1,0)	(1,0)	(1,0)	(1,0)	(1,0)	(1,0)	(1,0)	
L1D 483>	(0,2)	(-387,1)	(1,0)	(1,0)	(1,0)	(1,0)	(1,0)	(1,0)	(1,0)	(1,0)	(1,0)	(1,0)	(1,0)	(1,0)	(1,0)	(1,0)	
L1D 484>	(1,2)	(0,2)	(-335,1)	(-312,1)	(-425,1)	(-80,1)	(1,0)	(1,0)	(1,0)	(1,0)	(1,0)	(1,0)	(1,0)	(1,0)	(1,0)	(1,0)	
L1D 485>	(-484,1)	(3,1)	(-303,1)	(0,2)	(1,0)	(1,0)	(1,0)	(1,0)	(1,0)	(1,0)	(1,0)	(1,0)	(1,0)	(1,0)	(1,0)	(1,0)	
L1D 486>	(-106,2)	(1,1)	(0,3)	(-422,1)	(-486,1)	(-288,1)	(-207,1)	(-247,1)	(1,0)	(1,0)	(1,0)	(1,0)	(1,0)	(1,0)	(1,0)	(1,0)	
L1D 487>	(0,4)	(1,3)	(-291,1)	(-145,1)	(-371,1)	(-423,1)	(-30,1)	(1,0)	(1,0)	(1,0)	(1,0)	(1,0)	(1,0)	(1,0)	(1,0)	(1,0)	
L1D 488>	(-324,1)	(-29,1)	(1,0)	(1,0)	(1,0)	(1,0)	(1,0)	(1,0)	(1,0)	(1,0)	(1,0)	(1,0)	(1,0)	(1,0)	(1,0)	(1,0)	
L1D 489>	(-77,1)	(0,1)	(-6,1)	(1,0)	(1,0)	(1,0)	(1,0)	(1,0)	(1,0)	(1,0)	(1,0)	(1,0)	(1,0)	(1,0)	(1,0)	(1,0)	
L1D 490>	(-94,1)	(-380,1)	(-146,1)	(1,1)	(-452,1)	(-279,1)	(-91,1)	(1,0)	(1,0)	(1,0)	(1,0)	(1,0)	(1,0)	(1,0)	(1,0)	(1,0)	
L1D 491>	(-491,1)	(0,3)	(-167,1)	(-16,1)	(-259,1)	(-325,1)	(-320,1)	(1,0)	(1,0)	(1,0)	(1,0)	(1,0)	(1,0)	(1,0)	(1,0)	(1,0)	
L1D 492>	(-492,1)	(-1,1)	(0,2)	(-491,1)	(-428,1)	(-360,1)	(-251,1)	(-482,1)	(1,0)	(1,0)	(1,0)	(1,0)	(1,0)	(1,0)	(1,0)	(1,0)	
L1D 493>	(-1,1)	(0,1)	(-490,1)	(-429,1)	(-279,1)	(1,0)	(1,0)	(1,0)	(1,0)	(1,0)	(1,0)	(1,0)	(1,0)	(1,0)	(1,0)	(1,0)	
L1D 494>	(-402,1)	(0,1)	(1,0)	(1,0)	(1,0)	(1,0)	(1,0)	(1,0)	(1,0)	(1,0)	(1,0)	(1,0)	(1,0)	(1,0)	(1,0)	(1,0)	
L1D 495>	(0,1)	(1,3)	(-367,1)	(-332,1)	(1,0)	(1,0)	(1,0)	(1,0)	(1,0)	(1,0)	(1,0)	(1,0)	(1,0)	(1,0)	(1,0)	(1,0)	
L1D 496>	(1,1)	(0,1)	(-302,1)	(1,0)	(1,0)	(1,0)	(1,0)	(1,0)	(1,0)	(1,0)	(1,0)	(1,0)	(1,0)	(1,0)	(1,0)	(1,0)	
L1D 497>	(-5,1)	(-325,1)	(-293,1)	(-497,3)	(-496,1)	(1,0)	(1,0)	(1,0)	(1,0)	(1,0)	(1,0)	(1,0)	(1,0)	(1,0)	(1,0)	(1,0)	
L1D 498>	(-498,2)	(0,1)	(-128,1)	(1,0)	(1,0)	(1,0)	(1,0)	(1,0)	(1,0)	(1,0)	(1,0)	(1,0)	(1,0)	(1,0)	(1,0)	(1,0)	
L1D 499>	(-123,1)	(0,4)	(-380,1)	(-218,1)	(-398,1)	(-205,1)	(-295,1)	(1,0)	(1,0)	(1,0)	(1,0)	(1,0)	(1,0)	(1,0)	(1,0)	(1,0)	
L1D 500>	(-271,1)	(0,3)	(1,0)	(1,0)	(1,0)	(1,0)	(1,0)	(1,0)	(1,0)	(1,0)	(1,0)	(1,0)	(1,0)	(1,0)	(1,0)	(1,0)	
L1D 501>	(1,0)	(1,0)	(1,0)	(1,0)	(1,0)	(1,0)	(1,0)	(1,0)	(1,0)	(1,0)	(1,0)	(1,0)	(1,0)	(1,0)	(1,0)	(1,0)	
L1D 502>	(-6,1)	(-353,1)	(1,0)	(1,0)	(1,0)	(1,0)	(1,0)	(1,0)	(1,0)	(1,0)	(1,0)	(1,0)	(1,0)	(1,0)	(1,0)	(1,0)	
L1D 503>	(-416,1)	(-110,1)	(-496,1)	(-406,1)	(1,1)	(1,0)	(1,0)	(1,0)	(1,0)	(1,0)	(1,0)	(1,0)	(1,0)	(1,0)	(1,0)	(1,0)	
L1D 504>	(-248,1)	(-444,1)	(-30,1)	(1,0)	(1,0)	(1,0)	(1,0)	(1,0)	(1,0)	(1,0)	(1,0)	(1,0)	(1,0)	(1,0)	(1,0)	(1,0)	
L1D 505>	(-261,1)	(0,1)	(1,1)	(-227,1)	(1,0)	(1,0)	(1,0)	(1,0)	(1,0)	(1,0)	(1,0)	(1,0)	(1,0)	(1,0)	(1,0)	(1,0)	
L1D 506>	(1,1)	(-303,1)	(1,0)	(1,0)	(1,0)	(1,0)	(1,0)	(1,0)	(1,0)	(1,0)	(1,0)	(1,0)	(1,0)	(1,0)	(1,0)	(1,0)	
L1D 507>	(1,0)	(1,0)	(1,0)	(1,0)	(1,0)	(1,0)	(1,0)	(1,0)	(1,0)	(1,0)	(1,0)	(1,0)	(1,0)	(1,0)	(1,0)	(1,0)	
L1D 508>	(1,0)	(1,0)	(1,0)	(1,0)	(1,0)	(1,0)	(1,0)	(1,0)	(1,0)	(1,0)	(1,0)	(1,0)	(1,0)	(1,0)	(1,0)	(1,0)	
L1D 509>	(1,0)	(1,0)	(1,0)	(1,0)	(1,0)	(1,0)	(1,0)	(1,0)	(1,0)	(1,0)	(1,0)	(1,0)	(1,0)	(1,0)	(1,0)	(1,0)	
L1D 510>	(0,1)	(1,0)	(1,0)	(1,0)	(1,0)	(1,0)	(1,0)	(1,0)	(1,0)	(1,0)	(1,0)	(1,0)	(1,0)	(1,0)	(1,0)	(1,0)	
L1D 511>	(1,0)	(1,0)	(1,0)	(1,0)	(1,0)	(1,0)	(1,0)	(1,0)	(1,0)	(1,0)	(1,0)	(1,0)	(1,0)	(1,0)	(1,0)	(1,0)	

L2C -64>	(1,156)	(-1,37)	(17,13)	(0,69)	(-5,72)	(8,20)	(-11,10)	(5,18)	(-7,15)	(4,20)	(7,15)	(19,6)	(-21,10)	(-36,1)	(2,36)	(-2,28)	
L2C -63>	(23,1)	(22,1)	(1,4)	(6,1)	(2,1)	(30,1)	(1,0)	(1,0)	(1,0)	(1,0)	(1,0)	(1,0)	(1,0)	(1,0)	(1,0)	(1,0)	
L2C -62>	(1,3)	(5,1)	(46,1)	(61,1)	(41,1)	(53,1)	(55,1)	(33,1)	(50,1)	(19,1)	(12,1)	(37,1)	(1,0)	(1,0)	(1,0)	(1,0)	
L2C -61>	(24,1)	(45,2)	(47,1)	(1,5)	(-1,1)	(4,1)	(49,1)	(63,1)	(55,1)	(13,1)	(52,1)	(57,1)	(29,1)	(40,1)	(0,1)	(61,1)	
L2C -60>	(18,2)	(43,3)	(37,1)	(59,1)	(1,8)	(4,1)	(14,1)	(26,1)	(48,1)	(57,1)	(17,1)	(44,1)	(61,1)	(16,1)	(47,2)	(-2,1)	
L2C -59>	(42,1)	(1,8)	(35,1)	(2,1)	(0,2)	(8,3)	(60,2)	(53,2)	(48,1)	(22,1)	(5,1)	(-3,1)	(20,1)	(54,1)	(59,2)	(23,1)	
L2C -58>	(32,2)	(1,9)	(0,1)	(59,2)	(2,2)	(6,1)	(46,1)	(53,1)	(25,1)	(11,2)	(8,1)	(-1,1)	(48,2)	(26,2)	(-2,1)	(14,1)	
L2C -57>	(-1,2)	(0,1)	(54,1)	(48,2)	(11,1)	(57,2)	(3,1)	(58,3)	(7,2)	(18,2)	(25,2)	(16,2)	(6,1)	(-3,3)	(12,2)	(2,1)	
L2C -56>	(56,1)	(42,1)	(60,1)	(57,2)	(59,2)	(22,1)	(19,1)	(7,2)	(20,3)	(25,1)	(1,10)	(11,1)	(53,1)	(-2,1)	(31,1)	(6,1)	
L2C -55>	(1,26)	(55,1)	(59,1)	(56,3)	(58,1)	(52,1)	(0,3)	(11,2)	(22,1)	(-1,1)	(34,2)	(42,2)	(31,2)	(8,1)	(-7,2)	(51,3)	
L2C -54>	(15,1)	(0,1)	(17,1)	(54,4)	(-2,2)	(1,18)	(32,1)	(46,2)	(25,1)	(9,3)	(37,2)	(53,2)	(16,1)	(57,2)	(8,2)	(29,1)	
L2C -53>	(43,5)	(1,19)	(48,2)	(58,1)	(61,1)	(57,2)	(-1,5)	(46,2)	(0,8)	(13,1)	(27,3)	(53,14)	(20,3)	(16,3)	(3,1)	(-4,4)	
L2C -52>	(53,3)	(1,13)	(2,3)	(51,1)	(-3,1)	(45,2)	(0,4)	(52,10)	(16,1)	(33,1)	(8,3)	(50,6)	(34,1)	(3,2)	(24,1)	(59,2)	
L2C -51>	(15,2)	(36,3)	(46,2)	(9,1)	(-5,3)	(52,4)	(8,3)	(30,2)	(14,2)	(1,25)	(51,5)	(2,3)	(-3,2)	(11,1)	(23,1)	(12,2)	
L2C -50>	(1,22)	(5,1)	(30,1)	(23,1)	(27,2)	(40,1)	(0,4)	(19,2)	(53,2)	(11,3)	(2,3)	(50,9)	(17,2)	(51,5)	(38,1)	(36,1)	
L2C -49>	(48,2)	(25,2)	(29,2)	(49,4)	(50,5)	(24,2)	(1,21)	(22,2)	(23,1)	(4,2)	(33,3)	(41,2)	(55,1)	(34,2)	(16,1)	(10,2)	
L2C -48>	(2,3)	(-4,3)	(1,18)	(49,3)	(36,1)	(58,2)	(25,3)	(47,4)	(56,2)	(19,2)	(3,1)	(24,3)	(43,5)	(48,26)	(60,2)	(14,2)	
L2C -47>	(14,2)	(48,10)	(-6,1)	(31,3)	(1,53)	(47,14)	(0,3)	(40,3)	(63,1)	(54,2)	(39,2)	(21,4)	(2,3)	(13,2)	(43,4)	(6,3)	
L2C -46>	(8,1)	(20,3)	(47,14)	(-4,2)	(13,4)	(44,3)	(1,29)	(46,15)	(-2,4)	(25,6)	(45,4)	(-10,1)	(17,2)	(43,3)	(30,4)	(0,8)	
L2C -45>	(17,2)	(25,4)	(18,2)	(24,2)	(0,7)	(1,36)	(2,4)	(21,4)	(-5,2)	(35,1)	(8,3)	(31,3)	(44,2)	(37,2)	(45,6)	(7,2)	
L2C -44>	(25,3)	(27,3)	(48,1)	(1,44)	(2,4)	(29,3)	(3,5)	(39,3)	(-6,1)	(8,9)	(44,16)	(37,2)	(20,1)	(-8,2)	(50,4)	(14,3)	
L2C -43>	(44,15)	(43,19)	(45,3)	(8,4)	(-3,3)	(10,3)	(1,28)	(20,4)	(25,4)	(18,3)	(14,3)	(39,5)	(50,3)	(9,1)	(3,4)	(35,4)	
L2C -42>	(1,26)	(43,11)	(2,9)	(-3,1)	(32,2)	(44,5)	(48,1)	(0,10)	(18,3)	(42,19)	(35,2)	(-15,1)	(28,1)	(55,1)	(17,1)	(39,3)	
L2C -41>	(46,2)	(-2,5)	(13,3)	(10,2)	(1,24)	(6,4)	(32,1)	(30,4)	(7,2)	(36,5)	(17,7)	(2,3)	(-18,2)	(35,2)	(41,10)	(8,2)	
L2C -40>	(1,29)	(30,3)	(-4,4)	(21,1)	(40,12)	(17,3)	(25,4)	(-1,3)	(34,3)	(0,16)	(-5,2)	(47,2)	(5,7)	(-6,2)	(-10,2)	(38,4)	
L2C -39>	(1,83)	(8,7)	(48,2)	(19,5)	(34,8)	(14,3)	(-13,2)	(2,3)	(32,4)	(-3,5)	(39,14)	(23,1)	(29,1)	(18,3)	(9,3)	(15,4)	
L2C -38>	(39,10)	(-9,3)	(2,10)	(24,1)	(-1,6)	(21,3)	(-2,7)	(6,4)	(14,3)	(36,4)	(3,5)	(-10,2)	(38,19)	(1,55)	(33,9)	(50,2)	
L2C -37>	(8,9)	(20,1)	(5,2)	(4,4)	(12,2)	(42,6)	(1,55)	(38,6)	(0,6)	(10,5)	(33,3)	(36,5)	(-7,2)	(14,3)	(2,13)	(3,5)	
L2C -36>	(-11,2)	(1,63)	(-1,6)	(-5,5)	(32,1)	(-2,6)	(35,3)	(8,8)	(0,7)	(3,5)	(18,5)	(20,5)	(41,3)	(-8,2)	(-6,4)	(36,16)	
L2C -35>	(29,4)	(8,1)	(37,7)	(5,4)	(-11,4)	(36,7)	(31,5)	(24,3)	(1,73)	(17,3)	(-5,5)	(-18,4)	(35,9)	(-7,3)	(-4,5)	(27,3)	
L2C -34>	(6,2)	(34,28)	(20,4)	(-9,7)	(45,4)	(41,3)	(-3,4)	(33,7)	(-11,5)	(1,88)	(-4,5)	(27,4)	(36,3)	(2,1)	(-1,11)	(40,4)	
L2C -33>	(21,7)	(-2,1)	(41,6)	(2,7)	(16,4)	(-4,3)	(27,2)	(33,26)	(34,7)	(0,20)	(-5,5)	(35,8)	(-23,3)	(1,82)	(14,4)	(19,2)	
L2C -32>	(1,56)	(-2,8)	(-13,4)	(-17,3)	(33,17)	(17,4)	(14,4)	(19,3)	(32,21)	(2,6)	(23,4)	(-1,1)	(41,2)	(0,20)	(31,5)	(52,3)	
L2C -31>	(-4,5)	(-1,7)	(1,70)	(19,8)	(-8,6)	(49,1)	(0,14)	(26,12)	(12,2)	(4,9)	(-2,6)	(32,14)	(3,5)	(13,2)	(7,4)	(31,9)	
L2C -30>	(8,8)	(38,5)	(0,10)	(12,7)	(1,76)	(5,7)	(14,1)	(-12,5)	(27,5)	(28,5)	(29,3)	(30,15)	(31,23)	(-3,4)	(22,6)	(-14,5)	
L2C -29>	(41,4)	(30,13)	(33,1)	(29,11)	(-14,3)	(-2,6)	(23,3)	(1,69)	(43,4)	(8,10)	(-1,9)	(-6,5)	(0,17)	(-4,7)	(9,5)	(2,8)	
L2C -28>	(1,72)	(-3,7)	(33,6)	(22,6)	(40,4)	(27,8)	(-5,1)	(6,5)	(29,13)	(-21,2)	(26,2)	(51,2)	(17,5)	(8,6)	(23,10)	(28,20)	
L2C -27>	(1,51)	(27,31)	(22,6)	(-4,7)	(29,6)	(0,10)	(28,22)	(24,1)	(30,8)	(19,6)	(43,3)	(-19,2)	(-5,4)	(41,2)	(26,3)	(13,8)	
L2C -26>	(8,10)	(23,1)	(1,74)	(32,4)	(16,6)	(26,13)	(18,5)	(-1,8)	(0,16)	(30,4)	(-10,6)	(-2,10)	(27,15)	(4,3)	(-22,2)	(-6,7)	
L2C -25>	(-30,1)	(1,85)	(7,7)	(-2,6)	(-1,5)	(-12,3)	(18,4)	(29,5)	(25,20)	(23,3)	(14,3)	(-3,3)	(11,6)	(19,4)	(-23,5)	(17,3)	
L2C -24>	(24,25)	(1,87)	(25,14)	(10,7)	(-2,5)	(11,8)	(19,13)	(-8,5)	(21,4)	(12,5)	(0,10)	(-4,3)	(27,5)	(22,1)	(5,8)	(3,5)	
L2C -23>	(-2,10)	(8,17)	(-29,4)	(0,15)	(24,20)	(1,97)	(11,10)	(-3,8)	(-1,14)	(23,23)	(-12,1)	(34,3)	(22,10)	(-9,5)	(-17,4)	(14,8)	
L2C -22>	(1,113)	(18,8)	(22,31)	(24,5)	(19,10)	(-13,8)	(5,9)	(-4,8)	(17,15)	(41,1)	(21,7)	(14,5)	(38,5)	(8,16)	(34,5)	(7,9)	
L2C -21>	(-30,4)	(8,14)	(17,5)	(1,111)	(-10,9)	(0,6)	(21,35)	(-3,5)	(16,1)	(7,9)	(12,6)	(32,7)	(3,13)	(9,6)	(23,7)	(20,3)	
L2C -20>	(1,133)	(4,11)	(-1,15)	(18,7)	(21,20)	(32,6)	(8,19)	(39,4)	(2,4)	(12,11)	(20,32)	(-5,7)	(-4,4)	(23,9)	(28,6)	(35,1)	
L2C -19>	(14,11)	(-25,2)	(1,87)	(2,10)	(17,10)	(10,8)	(-19,5)	(19,41)	(-18,4)	(4,4)	(-21,1)	(31,9)	(-8,7)	(-4,6)	(3,15)	(6,6)	
L2C -18>	(1,136)	(19,28)	(17,15)	(8,15)	(16,5)	(3,6)	(-17,5)	(10,7)	(-19,5)	(-1,22)	(18,32)	(0,10)	(-10,6)	(24,1)	(46,2)	(-18,2)	
L2C -17>	(10,1)	(-4,9)	(1,85)	(5,11)	(-1,18)	(-14,4)	(19,8)	(4,17)	(-3,10)	(-12,5)	(7,9)	(-20,5)	(8,20)	(0,30)	(12,11)	(17,42)	
L2C -16>	(1,137)	(3,12)	(0,30)	(-37,1)	(-4,10)	(25,6)	(-12,6)	(-8,8)	(17,29)	(2,30)	(29,3)	(7,9)	(16,32)	(18,15)	(12,12)	(14,12)	
L2C -15>	(39,10)	(8,12)	(14,1)	(1,147)	(2,23)	(-2,17)	(13,7)	(-27,3)	(-16,5)	(15,43)	(12,8)	(11,9)	(17,11)	(50,3)	(6,10)	(-1,16)	
L2C -14>	(1,153)	(8,27)	(15,35)	(12,9)	(6,8)	(-23,7)	(-2,11)	(9,22)	(-11,12)	(5,10)	(-3,12)	(0,26)	(-19,1)	(-18,8)	(14,25)	(4,10)	
L2C -13>	(-2,18)	(-21,1)	(12,14)	(2,25)	(-19,10)	(9,6)	(15,10)	(1,84)	(3,20)	(4,36)	(14,25)	(24,4)	(-14,5)	(-15,4)	(-30,2)	(11,15)	
L2C -12>	(-2,25)	(1,125)	(-3,17)	(4,33)	(13,30)	(6,9)	(-9,1)	(-4,17)	(-14,10)	(-11,10)	(12,22)	(-5,10)	(14,11)	(-1,17)	(9,19)	(19,10)	
L2C -11>	(1,152)	(0,25)	(8,13)	(3,21)	(12,37)	(15,12)	(-10,18)	(-1,31)	(9,9)	(6,1)	(5,12)	(-25,8)	(10,15)	(-5,11)	(-8,7)	(-12,5)	
L2C -10>	(7,18)	(16,8)	(1,147)	(6,14)	(-7,11)	(11,25)	(-17,5)	(-1,33)	(8,1)	(-2,14)	(10,27)	(-12,15)	(5,6)	(35,4)	(14,8)	(2,20)	
L2C -9>	(11,21)	(-4,22)	(1,174)	(18,9)	(9,22)	(0,11)	(8,13)	(4,23)	(-1,27)	(-12,9)	(28,1)	(2,27)	(37,3)	(15,5)	(-7,11)	(10,33)	
L2C -8>	(2,52)	(1,161)	(-17,4)	(5,24)	(10,15)	(6,14)	(0,18)	(-5,1)	(9,28)	(-9,16)	(-1,45)	(-8,15)	(3,21)	(4,24)	(-24,4)	(-6,12)	
L2C -7>	(8,96)	(10,26)	(33,5)	(-13,7)	(4,21)	(-1,1)	(1,169)	(9,24)	(-29,8)	(-3,34)	(-8,12)	(3,32)	(-12,8)	(2,37)	(-22,6)	(-2,23)	
L2C -6>	(5,27)	(-1,38)	(1,233)	(10,25)	(0,1)	(6,42)	(-36,7)	(-20,8)	(-2,25)	(-4,16)	(16,13)	(-8,15)	(11,23)	(24,4)	(2,70)	(19,14)	
L2C -5>	(4,123)	(3,40)	(-1,43)	(13,14)	(1,247)	(23,1)	(0,221)	(-8,11)	(22,7)	(-30,10)	(6,29)	(-9,14)	(10,16)	(-21,11)	(5,34)	(-11,20)	
L2C -4>	(3,38)	(-11,9)	(2,7)	(13,7)	(1,180)	(-1,31)	(4,37)	(-5,12)	(-7,8)	(7,5)	(9,10)	(-3,25)	(18,1)	(-2,19)	(5,27)	(6,16)	
L2C -3>	(5,16)	(4,54)	(-2,46)	(-7,7)	(6,7)	(3,23)	(23,4)	(1,184)	(-1,37)	(54,1)	(-5,17)	(2,77)	(0,19)	(-11,10)	(-3,9)	(18,6)	
L2C -2>	(0,31)	(-1,79)	(1,161)	(-8,11)	(16,1)	(-5,15)	(3,66)	(-3,29)	(4,39)	(-2,35)	(-10,6)	(42,2)	(-14,9)	(10,9)	(-6,16)	(20,3)	
L2C -1>	(-4,36)	(4,42)	(2,230)	(-2,61)	(-9,12)	(-5,28)	(-1,68)	(-11,17)	(13,12)	(1,142)	(-27,9)	(15,13)	(-13,12)	(-6,21)	(-3,1)	(-20,9)	
L2C 0>	(38,1)	(-4,3)	(-1,11)	(5,2)	(0,167)	(1,15)	(50,1)	(-2,4)	(-15,2)	(-6,4)	(-19,1)	(6,1)	(15,1)	(-9,2)	(16,3)	(2,4)	
L2C 1>	(1,182)	(-17,1)	(2,7)	(-32,1)	(-27,2)	(9,3)	(-21,1)	(3,1)	(-25,1)	(31,1)	(-51,1)	(-4,1)	(-29,1)	(13,2)	(-35,1)	(-12,1)	
L2C 2>	(1,178)	(-1,31)	(3,17)	(2,47)	(-5,9)	(-3,17)	(12,1)	(-17,4)	(4,7)	(6,4)	(9,2)	(-2,14)	(-7,11)	(0,10)	(-8,5)	(8,4)	
L2C 3>	(-5,8)	(2,29)	(1,155)	(-7,8)	(-12,8)	(-2,52)	(-8,11)	(-4,20)	(5,9)	(-6,13)	(8,1)	(15,3)	(3,12)	(12,7)	(19,3)	(9,6)	
L2C 4>	(-5,14)	(1,90)	(4,173)	(2,16)	(-1,23)	(-2,27)	(8,22)	(-7,1)	(3,11)	(-19,7)	(10,6)	(-13,10)	(-4,13)	(-15,8)	(-18,6)	(-3,35)	
L2C 5>	(1,242)	(-3,35)	(-23,5)	(3,33)	(-9,1)	(13,8)	(14,3)	(-15,14)	(17,9)	(-32,7)	(-4,38)	(4,28)	(-6,24)	(-1,56)	(-5,41)	(25,7)	
L2C 6>	(1,129)	(-4,56)	(8,21)	(3,15)	(9,4)	(-2,41)	(-19,4)	(2,22)	(-5,45)	(0,1)	(-6,63)	(-26,4)	(-10,6)	(-7,4)	(-12,9)	(22,3)	
L2C 7>	(1,228)	(-12,26)	(-11,1)	(11,7)	(-10,9)	(-35,3)	(-6,14)	(-1,29)	(38,3)	(-2,24)	(-4,17)	(-8,15)	(-20,9)	(4,21)	(-7,40)	(44,3)	
L2C 8>	(1,231)	(-7,101)	(-6,82)	(-19,11)	(17,9)	(5,12)	(8,114)	(4,54)	(-5,18)	(10,17)	(-3,24)	(-14,18)	(-10,23)	(3,25)	(-1,31)	(-39,1)	
L2C 9>	(-6,27)	(1,175)	(-8,23)	(-1,29)	(9,11)	(-3,13)	(-9,19)	(6,7)	(8,18)	(-7,27)	(37,1)	(-5,13)	(4,15)	(-10,6)	(-19,12)	(-14,14)	
L2C 10>	(-9,27)	(4,23)	(-7,16)	(-15,14)	(1,135)	(-50,1)	(16,5)	(-8,12)	(-32,4)	(15,8)	(-30,2)	(-11,16)	(-10,37)	(-6,10)	(6,8)	(2,19)	
L2C 11>	(4,16)	(8,10)	(-11,43)	(-27,8)	(-2,17)	(1,120)	(-3,14)	(-6,20)	(-1,27)	(-12,25)	(-8,9)	(19,1)	(-20,5)	(17,5)	(-10,16)	(-18,5)	
L2C 12>	(1,208)	(-16,12)	(4,36)	(-4,13)	(-1,24)	(-11,26)	(2,10)	(-25,8)	(-12,18)	(-22,4)	(-8,16)	(-3,12)	(-5,8)	(3,18)	(-7,9)	(-29,1)	
L2C 13>	(-2,17)	(4,23)	(1,179)	(17,1)	(-17,10)	(2,31)	(-5,13)	(-18,8)	(-1,16)	(-7,6)	(-24,8)	(-19,10)	(0,26)	(-4,15)	(-15,9)	(6,8)	
L2C 14>	(5,12)	(-21,12)	(0,24)	(12,1)	(-14,50)	(-3,7)	(33,4)	(4,14)	(-19,16)	(-18,7)	(-22,5)	(-2,17)	(1,128)	(-26,6)	(-13,6)	(-32,5)	
L2C 15>	(1,124)	(4,13)	(-17,10)	(-1,23)	(-7,12)	(-15,48)	(-14,13)	(2,16)	(-16,6)	(0,25)	(-2,7)	(19,6)	(-22,1)	(-3,19)	(9,7)	(-9,6)	
L2C 16>	(2,8)	(1,121)	(-2,12)	(-3,8)	(-5,10)	(-1,20)	(-15,13)	(-27,1)	(-16,38)	(-18,12)	(-9,8)	(0,22)	(5,3)	(4,14)	(7,3)	(-7,8)	
L2C 17>	(1,138)	(-2,10)	(-39,1)	(-17,32)	(-29,4)	(4,3)	(6,6)	(-8,4)	(15,3)	(-11,5)	(0,25)	(-3,8)	(-26,2)	(-16,26)	(17,23)	(2,7)	
L2C 18>	(-18,47)	(16,4)	(1,127)	(-8,8)	(-34,5)	(-11,8)	(-17,1)	(-29,10)	(-1,14)	(0,15)	(-4,12)	(2,8)	(-12,8)	(-14,9)	(-19,14)	(-3,12)	
L2C 19>	(21,6)	(5,9)	(-1,15)	(-10,4)	(2,12)	(25,3)	(-24,24)	(-16,7)	(0,1)	(-18,21)	(-22,7)	(1,74)	(-19,37)	(-34,4)	(-20,9)	(-11,3)	
L2C 20>	(1,72)	(-2,10)	(-17,7)	(-26,9)	(6,4)	(-44,1)	(-20,53)	(-1,19)	(-29,6)	(3,3)	(-12,7)	(-28,3)	(-8,8)	(-21,11)	(2,5)	(16,4)	
L2C 21>	(-3,6)	(1,69)	(4,14)	(8,6)	(-19,11)	(-21,49)	(-6,7)	(14,5)	(-5,7)	(-1,12)	(-23,5)	(0,12)	(-26,1)	(6,3)	(-22,9)	(-31,5)	
L2C 22>	(-2,17)	(3,3)	(-21,10)	(-51,1)	(-22,40)	(-13,7)	(1,61)	(-28,5)	(-15,11)	(-27,14)	(-4,5)	(-7,7)	(2,10)	(-1,14)	(-20,10)	(-23,9)	
L2C 23>	(0,17)	(-2,9)	(-13,8)	(-14,7)	(1,55)	(4,5)	(2,4)	(14,5)	(-23,28)	(-28,9)	(-1,9)	(-24,4)	(-11,7)	(17,1)	(-29,4)	(-3,9)	
L2C 24>	(-4,5)	(-21,7)	(-2,7)	(-3,8)	(-24,26)	(-23,5)	(0,10)	(-28,7)	(-13,1)	(-35,5)	(1,81)	(-22,3)	(-29,5)	(-16,6)	(-5,3)	(11,5)	
L2C 25>	(1,85)	(-6,4)	(-20,6)	(-26,1)	(-39,1)	(-24,9)	(-25,29)	(-12,10)	(4,6)	(-23,6)	(-10,5)	(-19,4)	(9,4)	(-11,2)	(-21,6)	(24,2)	
L2C 26>	(-26,16)	(-24,5)	(-3,7)	(11,6)	(-27,9)	(-40,3)	(-20,5)	(-18,7)	(-6,8)	(6,5)	(-30,6)	(1,58)	(-25,10)	(-23,7)	(-8,1)	(-9,3)	
L2C 27>	(1,44)	(0,1)	(-3,6)	(-16,3)	(-22,4)	(16,2)	(-4,6)	(8,17)	(-15,2)	(9,2)	(-27,57)	(7,3)	(-6,5)	(-12,3)	(-33,7)	(-7,7)	
L2C 28>	(-7,8)	(1,76)	(-23,5)	(0,10)	(-27,11)	(-29,9)	(-5,6)	(-20,2)	(8,7)	(-14,7)	(-6,5)	(-28,10)	(-8,7)	(-2,12)	(14,1)	(26,2)	
L2C 29>	(-3,12)	(-9,4)	(-22,3)	(-25,6)	(0,10)	(10,3)	(-36,3)	(-32,5)	(-29,7)	(3,6)	(-2,7)	(-27,7)	(-4,1)	(1,70)	(8,8)	(-7,4)	
L2C 30>	(0,13)	(-29,9)	(-26,5)	(27,1)	(-11,4)	(1,78)	(-1,6)	(-15,3)	(-63,1)	(-30,14)	(-24,6)	(-4,5)	(7,6)	(-32,5)	(-5,6)	(5,7)	
L2C 31>	(-15,5)	(-30,13)	(-41,3)	(-1,11)	(18,3)	(16,3)	(-27,2)	(-47,3)	(5,3)	(-2,8)	(-26,5)	(-40,1)	(-6,5)	(-10,5)	(-31,18)	(1,74)	
L2C 32>	(-39,4)	(1,57)	(2,10)	(-1,13)	(-14,2)	(-4,9)	(-11,6)	(-13,4)	(-33,5)	(-30,1)	(11,3)	(-45,1)	(-15,6)	(-3,7)	(-48,2)	(8,17)	
L2C 33>	(1,42)	(-36,7)	(-1,7)	(2,1)	(8,2)	(-32,10)	(-38,6)	(-10,4)	(-31,8)	(-33,43)	(-35,3)	(-12,4)	(-23,6)	(11,5)	(-19,3)	(-30,7)	
L2C 34>	(-19,5)	(-41,5)	(-34,27)	(-50,3)	(-35,4)	(-11,3)	(-4,8)	(-33,15)	(-2,3)	(-21,1)	(-30,3)	(-20,3)	(-42,4)	(10,1)	(1,57)	(-61,1)	
L2C 35>	(-48,2)	(-18,2)	(1,70)	(-16,5)	(-25,3)	(-21,1)	(-11,5)	(0,6)	(-59,1)	(-34,9)	(-35,19)	(-38,4)	(-12,5)	(-5,3)	(-1,5)	(-2,3)	
L2C 36>	(2,3)	(1,52)	(-12,3)	(-2,2)	(-35,9)	(-5,4)	(12,2)	(-31,5)	(-15,3)	(-21,4)	(-18,5)	(-36,12)	(-25,1)	(19,1)	(8,1)	(-6,9)	
L2C 37>	(-41,4)	(-15,6)	(-30,3)	(-54,2)	(11,1)	(-49,1)	(-35,4)	(-31,4)	(0,17)	(-11,4)	(-40,1)	(-1,4)	(1,44)	(-16,3)	(-20,2)	(-9,3)	
L2C 38>	(-39,2)	(-38,16)	(-8,7)	(-16,4)	(1,20)	(-43,8)	(-12,2)	(-31,4)	(-37,4)	(-20,2)	(8,2)	(-11,3)	(-33,1)	(-40,4)	(-25,1)	(-7,4)	
L2C 39>	(-33,1)	(-17,3)	(-34,2)	(-13,4)	(-6,2)	(-20,4)	(4,7)	(-27,2)	(-39,8)	(1,29)	(-37,8)	(-14,5)	(-2,5)	(8,3)	(-41,3)	(-47,3)	
L2C 40>	(1,30)	(-27,2)	(-14,2)	(-4,1)	(-44,4)	(-40,11)	(-38,1)	(-1,5)	(-17,4)	(-2,3)	(-42,5)	(8,3)	(-16,2)	(15,2)	(9,3)	(14,1)	
L2C 41>	(-37,5)	(1,55)	(-36,5)	(-24,2)	(-40,5)	(3,2)	(-9,1)	(-23,1)	(-21,2)	(17,1)	(2,5)	(-39,2)	(-27,2)	(-41,10)	(-5,3)	(-44,1)	
L2C 42>	(-41,3)	(-12,2)	(-38,5)	(-1,5)	(1,47)	(-42,13)	(-45,1)	(2,3)	(-28,3)	(-13,2)	(-15,5)	(-50,2)	(-32,3)	(-25,5)	(-18,3)	(-47,3)	
L2C 43>	(-12,2)	(1,35)	(-42,6)	(-14,3)	(-58,2)	(-20,2)	(-23,3)	(-1,2)	(-9,3)	(2,3)	(0,1)	(-24,3)	(-40,2)	(-45,3)	(-44,5)	(-5,4)	
L2C 44>	(-43,11)	(-8,5)	(-4,4)	(-1,7)	(1,20)	(-50,3)	(-26,3)	(-6,2)	(-44,6)	(0,6)	(-46,2)	(-5,4)	(-45,1)	(-14,3)	(-48,4)	(-18,2)	
L2C 45>	(1,29)	(-47,2)	(-2,6)	(-1,2)	(-30,1)	(-5,2)	(-44,5)	(2,3)	(-34,3)	(-19,3)	(-33,3)	(13,1)	(-48,1)	(-27,3)	(-36,3)	(0,4)	
L2C 46>	(-13,2)	(1,17)	(-47,6)	(-45,9)	(-46,13)	(-12,5)	(-5,1)	(-4,2)	(-34,10)	(2,4)	(3,1)	(-19,1)	(-35,2)	(-21,3)	(-1,3)	(-31,5)	
L2C 47>	(-2,3)	(1,24)	(-47,13)	(-3,3)	(-7,2)	(-46,16)	(-36,4)	(-20,5)	(-6,3)	(-45,1)	(-31,1)	(-33,4)	(-32,2)	(-50,3)	(2,3)	(-34,5)	
L2C 48>	(-47,6)	(-49,2)	(-1,8)	(-27,1)	(-9,2)	(1,12)	(0,9)	(-31,1)	(-28,1)	(-7,2)	(-2,2)	(-5,4)	(-16,4)	(-48,24)	(-17,4)	(-40,3)	
L2C 49>	(-35,2)	(-16,3)	(1,14)	(-1,8)	(-12,1)	(-47,1)	(10,1)	(-49,7)	(2,2)	(-37,1)	(-40,2)	(-51,4)	(-25,2)	(-6,2)	(-39,2)	(0,5)	
L2C 50>	(2,5)	(-16,1)	(-14,4)	(-1,3)	(-49,10)	(-45,1)	(-30,1)	(1,11)	(-46,3)	(-34,2)	(-53,2)	(-50,8)	(-35,2)	(-18,1)	(-15,1)	(-9,3)	
L2C 51>	(1,15)	(-14,1)	(-53,4)	(-21,2)	(-51,12)	(-18,1)	(-1,3)	(-47,1)	(-59,1)	(-40,1)	(-4,4)	(3,1)	(-37,2)	(-31,2)	(-22,1)	(-50,3)	
L2C 52>	(-36,3)	(-53,5)	(-52,4)	(-44,2)	(-5,3)	(-38,3)	(-11,3)	(-2,3)	(-10,1)	(-7,4)	(-16,3)	(-9,1)	(1,13)	(-31,1)	(-4,2)	(0,6)	
L2C 53>	(-26,7)	(-4,4)	(-37,2)	(-32,1)	(-23,1)	(-3,4)	(-6,2)	(-28,2)	(-18,1)	(-53,8)	(-44,1)	(1,9)	(-7,1)	(-38,1)	(-52,3)	(-8,1)	
L2C 54>	(-53,2)	(-11,2)	(-40,2)	(-43,1)	(-7,1)	(-19,1)	(-28,2)	(1,11)	(-36,1)	(3,2)	(-33,1)	(-6,2)	(-15,1)	(-38,2)	(0,2)	(-17,2)	
L2C 55>	(0,1)	(-41,1)	(5,1)	(-12,1)	(-14,2)	(-57,1)	(-55,2)	(1,6)	(-3,1)	(-21,2)	(-13,1)	(-29,1)	(-11,2)	(-19,2)	(-24,1)	(-1,3)	
L2C 56>	(-55,3)	(1,3)	(-57,2)	(-52,3)	(-56,1)	(-8,1)	(-12,1)	(-46,1)	(-27,1)	(-51,2)	(-17,1)	(-42,1)	(-29,2)	(-34,1)	(-33,2)	(-40,1)	
L2C 57>	(1,10)	(-56,2)	(-34,1)	(-6,2)	(-1,1)	(-18,1)	(-10,2)	(-41,1)	(-16,2)	(-25,1)	(-37,2)	(-57,4)	(-31,2)	(-30,2)	(-4,1)	(-42,1)	
L2C 58>	(1,1)	(-47,1)	(-56,2)	(0,1)	(-6,1)	(-7,2)	(-36,2)	(-22,1)	(-3,1)	(-58,2)	(-2,1)	(-5,1)	(-34,2)	(2,1)	(-1,1)	(-46,2)	
L2C 59>	(-38,2)	(-8,1)	(-6,2)	(-16,2)	(-59,3)	(-42,2)	(-58,1)	(0,1)	(-3,3)	(-4,1)	(1,3)	(-14,2)	(-12,1)	(-32,2)	(-31,1)	(-5,1)	
L2C 60>	(-6,1)	(1,5)	(-13,1)	(-2,1)	(-59,1)	(-45,1)	(-37,1)	(-23,1)	(-60,1)	(-48,1)	(-39,1)	(-40,2)	(-17,1)	(1,0)	(1,0)	(1,0)	
L2C 61>	(-48,1)	(-10,1)	(1,2)	(-59,1)	(-3,1)	(-21,1)	(-61,1)	(-2,1)	(-6,1)	(-51,1)	(-37,1)	(-60,1)	(-14,1)	(-31,1)	(-40,1)	(-4,1)	
L2C 62>	(-19,1)	(-6,1)	(-60,1)	(-25,1)	(-45,1)	(-34,1)	(-16,1)	(0,1)	(-52,1)	(-42,1)	(-12,1)	(1,0)	(1,0)	(1,0)	(1,0)	(1,0)	
L2C 63>	(-47,1)	(-31,1)	(-32,2)	(-34,1)	(-52,1)	(-4,1)	(-53,1)	(1,0)	(1,0)	(1,0)	(1,0)	(1,0)	(1,0)	(1,0)	(1,0)	(1,0)	

DRAM Statistics
 CHANNEL 0
 RQ ROW_BUFFER_HIT:      63176  ROW_BUFFER_MISS:     108779
 DBUS_CONGESTED:     115659
 WQ ROW_BUFFER_HIT:       1396  ROW_BUFFER_MISS:      19325  FULL:          0

 AVG_CONGESTED_CYCLE: 6
