
*** ChampSim Multicore Out-of-Order Simulator ***

Warmup Instructions: 1000000
Simulation Instructions: 10000000
Number of CPUs: 4
LLC sets: 8192
LLC ways: 16
Off-chip DRAM Size: 4096 MB Channels: 1 Width: 64-bit Data Rate: 3200 MT/s

CPU 0 runs /home/virtualcse/Data-Prefetching/ChampSim/dpc3_traces/631.deepsjeng_s-928B.champsimtrace.xz
CPU 1 runs /home/virtualcse/Data-Prefetching/ChampSim/dpc3_traces/623.xalancbmk_s-202B.champsimtrace.xz
CPU 2 runs /home/virtualcse/Data-Prefetching/ChampSim/dpc3_traces/621.wrf_s-6673B.champsimtrace.xz
CPU 3 runs /home/virtualcse/Data-Prefetching/ChampSim/dpc3_traces/603.bwaves_s-1080B.champsimtrace.xz
Ultra pref. initializing...
Ultra pref. initialized
Ultra pref. initializing...
Ultra pref. initialized
Ultra pref. initializing...
Ultra pref. initialized
Ultra pref. initializing...
Ultra pref. initialized
Ultra pref. initializing...
Ultra pref. initialized
Ultra pref. initializing...
Ultra pref. initialized
Ultra pref. initializing...
Ultra pref. initialized
Ultra pref. initializing...
Ultra pref. initialized

Warmup complete CPU 0 instructions: 1000004 cycles: 377958 (Simulation time: 0 hr 0 min 9 sec) 
Warmup complete CPU 1 instructions: 1068118 cycles: 377957 (Simulation time: 0 hr 0 min 9 sec) 
Warmup complete CPU 2 instructions: 1052651 cycles: 377957 (Simulation time: 0 hr 0 min 9 sec) 
Warmup complete CPU 3 instructions: 1115057 cycles: 377957 (Simulation time: 0 hr 0 min 9 sec) 

Heartbeat CPU 3 instructions: 10000001 cycles: 4642826 heartbeat IPC: 2.15386 cumulative IPC: 2.08329 (Simulation time: 0 hr 0 min 56 sec) 
Finished CPU 3 instructions: 10000000 cycles: 4814860 cumulative IPC: 2.0769 (Simulation time: 0 hr 1 min 2 sec) 
Heartbeat CPU 2 instructions: 10000001 cycles: 5786572 heartbeat IPC: 1.72814 cumulative IPC: 1.65428 (Simulation time: 0 hr 1 min 8 sec) 
Finished CPU 2 instructions: 10000000 cycles: 6275928 cumulative IPC: 1.59339 (Simulation time: 0 hr 1 min 15 sec) 
Heartbeat CPU 0 instructions: 10000003 cycles: 8488569 heartbeat IPC: 1.17806 cumulative IPC: 1.10966 (Simulation time: 0 hr 1 min 32 sec) 
Finished CPU 0 instructions: 10000001 cycles: 9032694 cumulative IPC: 1.10709 (Simulation time: 0 hr 1 min 40 sec) 
Heartbeat CPU 3 instructions: 20000003 cycles: 9621620 heartbeat IPC: 2.00852 cumulative IPC: 2.04302 (Simulation time: 0 hr 1 min 42 sec) 
Heartbeat CPU 1 instructions: 10000003 cycles: 10806984 heartbeat IPC: 0.925328 cumulative IPC: 0.856445 (Simulation time: 0 hr 1 min 53 sec) 
Finished CPU 1 instructions: 10000002 cycles: 12134859 cumulative IPC: 0.824072 (Simulation time: 0 hr 2 min 8 sec) 

CPU 0 Branch Prediction Accuracy: 91.5539% MPKI: 9.39151 Average ROB Occupancy at Mispredict: 45.8216

CPU 1 Branch Prediction Accuracy: 99.9815% MPKI: 0.0476752 Average ROB Occupancy at Mispredict: 123.231

CPU 2 Branch Prediction Accuracy: 99.2379% MPKI: 0.381577 Average ROB Occupancy at Mispredict: 179.879

CPU 3 Branch Prediction Accuracy: 93.592% MPKI: 7.62801 Average ROB Occupancy at Mispredict: 83.6276

ChampSim completed all CPUs

Total Simulation Statistics (not including warmup)

CPU 0 cumulative IPC: 1.09532 instructions: 13291570 cycles: 12134858
L1D TOTAL     ACCESS:    5489836  HIT:    5463120  MISS:      26716
L1D LOAD      ACCESS:    2330781  HIT:    2323667  MISS:       7114
L1D RFO       ACCESS:    1566983  HIT:    1562901  MISS:       4082
L1D PREFETCH  ACCESS:    1592072  HIT:    1576552  MISS:      15520
L1D WRITEBACK ACCESS:          0  HIT:          0  MISS:          0
L1I TOTAL     ACCESS:    1469965  HIT:    1458659  MISS:      11306
L1I LOAD      ACCESS:    1469965  HIT:    1458659  MISS:      11306
L1I RFO       ACCESS:          0  HIT:          0  MISS:          0
L1I PREFETCH  ACCESS:          0  HIT:          0  MISS:          0
L1I WRITEBACK ACCESS:          0  HIT:          0  MISS:          0
L2C TOTAL     ACCESS:     116418  HIT:      99928  MISS:      16490
L2C LOAD      ACCESS:      18269  HIT:      15173  MISS:       3096
L2C RFO       ACCESS:       4036  HIT:       3802  MISS:        234
L2C PREFETCH  ACCESS:      85106  HIT:      71954  MISS:      13152
L2C WRITEBACK ACCESS:       9007  HIT:       8999  MISS:          8

L1D -512>	(0,121)	(1,44)	(6,73)	(-8,23)	(3,78)	(2,101)	(13,8)	(37,25)	(12,38)	(11,10)	(38,20)	(5,4)	(8,8)	(4,126)	(-1,1)	(75,7)	
L1D -511>	(6,49)	(2,98)	(8,6)	(1,93)	(3,26)	(4,53)	(5,3)	(0,1)	(7,1)	(1,0)	(1,0)	(1,0)	(1,0)	(1,0)	(1,0)	(1,0)	
L1D -510>	(2,88)	(8,1)	(-1,3)	(4,37)	(6,11)	(5,0)	(3,7)	(1,11)	(7,1)	(0,0)	(1,0)	(1,0)	(1,0)	(1,0)	(1,0)	(1,0)	
L1D -509>	(-1,10)	(2,83)	(1,20)	(0,1)	(6,115)	(3,7)	(11,0)	(4,21)	(7,1)	(1,0)	(1,0)	(1,0)	(1,0)	(1,0)	(1,0)	(1,0)	
L1D -508>	(1,22)	(2,82)	(6,9)	(4,27)	(11,57)	(0,17)	(-1,3)	(3,10)	(5,1)	(-2,4)	(10,0)	(1,0)	(1,0)	(1,0)	(1,0)	(1,0)	
L1D -507>	(2,47)	(-1,4)	(13,15)	(6,1)	(12,8)	(11,2)	(8,1)	(3,6)	(4,16)	(1,12)	(42,1)	(0,1)	(-2,1)	(10,1)	(1,0)	(1,0)	
L1D -506>	(2,57)	(-1,1)	(6,3)	(4,13)	(13,86)	(9,1)	(3,6)	(5,2)	(1,12)	(8,13)	(52,1)	(1,0)	(1,0)	(1,0)	(1,0)	(1,0)	
L1D -505>	(-1,8)	(6,1)	(2,34)	(11,1)	(13,11)	(0,3)	(12,18)	(1,9)	(8,7)	(3,2)	(4,3)	(9,1)	(52,1)	(7,1)	(1,0)	(1,0)	
L1D -504>	(12,1)	(-1,7)	(2,38)	(1,5)	(6,4)	(0,2)	(9,1)	(3,3)	(4,6)	(-4,1)	(8,1)	(-6,1)	(1,0)	(1,0)	(1,0)	(1,0)	
L1D -503>	(4,2)	(6,79)	(-6,1)	(2,28)	(0,3)	(-8,13)	(1,5)	(-1,2)	(7,0)	(1,0)	(1,0)	(1,0)	(1,0)	(1,0)	(1,0)	(1,0)	
L1D -502>	(-8,6)	(96,1)	(1,0)	(1,0)	(1,0)	(1,0)	(1,0)	(1,0)	(1,0)	(1,0)	(1,0)	(1,0)	(1,0)	(1,0)	(1,0)	(1,0)	
L1D -501>	(13,1)	(0,1)	(2,5)	(-8,5)	(1,3)	(3,1)	(-2,1)	(1,0)	(1,0)	(1,0)	(1,0)	(1,0)	(1,0)	(1,0)	(1,0)	(1,0)	
L1D -500>	(13,5)	(2,1)	(8,1)	(6,1)	(4,1)	(1,0)	(1,0)	(1,0)	(1,0)	(1,0)	(1,0)	(1,0)	(1,0)	(1,0)	(1,0)	(1,0)	
L1D -499>	(3,1)	(-8,15)	(13,70)	(2,11)	(5,1)	(4,1)	(6,3)	(-2,1)	(0,0)	(1,0)	(1,0)	(1,0)	(1,0)	(1,0)	(1,0)	(1,0)	
L1D -498>	(4,9)	(2,10)	(6,9)	(-8,8)	(1,0)	(1,0)	(1,0)	(1,0)	(1,0)	(1,0)	(1,0)	(1,0)	(1,0)	(1,0)	(1,0)	(1,0)	
L1D -497>	(12,65)	(-8,36)	(6,1)	(4,2)	(2,2)	(0,1)	(1,0)	(1,0)	(1,0)	(1,0)	(1,0)	(1,0)	(1,0)	(1,0)	(1,0)	(1,0)	
L1D -496>	(4,4)	(1,3)	(-1,1)	(0,1)	(2,5)	(1,0)	(1,0)	(1,0)	(1,0)	(1,0)	(1,0)	(1,0)	(1,0)	(1,0)	(1,0)	(1,0)	
L1D -495>	(-1,2)	(2,6)	(1,2)	(-2,1)	(4,2)	(1,0)	(1,0)	(1,0)	(1,0)	(1,0)	(1,0)	(1,0)	(1,0)	(1,0)	(1,0)	(1,0)	
L1D -494>	(4,1)	(6,1)	(2,1)	(1,0)	(1,0)	(1,0)	(1,0)	(1,0)	(1,0)	(1,0)	(1,0)	(1,0)	(1,0)	(1,0)	(1,0)	(1,0)	
L1D -493>	(6,19)	(2,3)	(-1,1)	(4,1)	(1,0)	(1,0)	(1,0)	(1,0)	(1,0)	(1,0)	(1,0)	(1,0)	(1,0)	(1,0)	(1,0)	(1,0)	
L1D -492>	(4,4)	(6,2)	(13,3)	(2,5)	(5,1)	(1,0)	(1,0)	(1,0)	(1,0)	(1,0)	(1,0)	(1,0)	(1,0)	(1,0)	(1,0)	(1,0)	
L1D -491>	(3,2)	(2,3)	(1,1)	(0,1)	(5,1)	(4,1)	(1,0)	(1,0)	(1,0)	(1,0)	(1,0)	(1,0)	(1,0)	(1,0)	(1,0)	(1,0)	
L1D -490>	(-1,1)	(2,8)	(1,1)	(1,0)	(1,0)	(1,0)	(1,0)	(1,0)	(1,0)	(1,0)	(1,0)	(1,0)	(1,0)	(1,0)	(1,0)	(1,0)	
L1D -489>	(-1,3)	(13,6)	(38,30)	(37,26)	(75,8)	(225,2)	(113,1)	(263,1)	(187,1)	(262,1)	(3,5)	(2,1)	(-2,1)	(1,0)	(1,0)	(1,0)	
L1D -488>	(2,6)	(1,1)	(12,1)	(1,0)	(1,0)	(1,0)	(1,0)	(1,0)	(1,0)	(1,0)	(1,0)	(1,0)	(1,0)	(1,0)	(1,0)	(1,0)	
L1D -487>	(4,1)	(13,1)	(2,3)	(1,1)	(1,0)	(1,0)	(1,0)	(1,0)	(1,0)	(1,0)	(1,0)	(1,0)	(1,0)	(1,0)	(1,0)	(1,0)	
L1D -486>	(2,9)	(80,1)	(4,1)	(0,3)	(3,1)	(1,0)	(1,0)	(1,0)	(1,0)	(1,0)	(1,0)	(1,0)	(1,0)	(1,0)	(1,0)	(1,0)	
L1D -485>	(8,1)	(2,6)	(1,1)	(13,2)	(4,1)	(3,3)	(1,0)	(1,0)	(1,0)	(1,0)	(1,0)	(1,0)	(1,0)	(1,0)	(1,0)	(1,0)	
L1D -484>	(2,4)	(4,4)	(0,1)	(1,0)	(1,0)	(1,0)	(1,0)	(1,0)	(1,0)	(1,0)	(1,0)	(1,0)	(1,0)	(1,0)	(1,0)	(1,0)	
L1D -483>	(1,9)	(3,1)	(4,1)	(2,1)	(5,1)	(1,0)	(1,0)	(1,0)	(1,0)	(1,0)	(1,0)	(1,0)	(1,0)	(1,0)	(1,0)	(1,0)	
L1D -482>	(2,7)	(4,4)	(6,5)	(3,2)	(1,0)	(1,0)	(1,0)	(1,0)	(1,0)	(1,0)	(1,0)	(1,0)	(1,0)	(1,0)	(1,0)	(1,0)	
L1D -481>	(123,1)	(-1,4)	(3,1)	(2,3)	(1,0)	(1,0)	(1,0)	(1,0)	(1,0)	(1,0)	(1,0)	(1,0)	(1,0)	(1,0)	(1,0)	(1,0)	
L1D -480>	(0,1)	(456,15)	(464,4)	(480,3)	(448,6)	(2,9)	(4,3)	(1,0)	(1,0)	(1,0)	(1,0)	(1,0)	(1,0)	(1,0)	(1,0)	(1,0)	
L1D -479>	(270,2)	(-1,1)	(2,2)	(6,1)	(4,1)	(3,2)	(1,0)	(1,0)	(1,0)	(1,0)	(1,0)	(1,0)	(1,0)	(1,0)	(1,0)	(1,0)	
L1D -478>	(4,2)	(121,1)	(498,1)	(400,2)	(0,4)	(1,0)	(1,0)	(1,0)	(1,0)	(1,0)	(1,0)	(1,0)	(1,0)	(1,0)	(1,0)	(1,0)	
L1D -477>	(6,1)	(2,3)	(4,2)	(3,1)	(1,0)	(1,0)	(1,0)	(1,0)	(1,0)	(1,0)	(1,0)	(1,0)	(1,0)	(1,0)	(1,0)	(1,0)	
L1D -476>	(2,7)	(4,3)	(0,1)	(1,0)	(1,0)	(1,0)	(1,0)	(1,0)	(1,0)	(1,0)	(1,0)	(1,0)	(1,0)	(1,0)	(1,0)	(1,0)	
L1D -475>	(475,3)	(411,1)	(3,1)	(4,3)	(2,3)	(1,1)	(1,0)	(1,0)	(1,0)	(1,0)	(1,0)	(1,0)	(1,0)	(1,0)	(1,0)	(1,0)	
L1D -474>	(115,3)	(2,8)	(-1,1)	(4,3)	(1,0)	(1,0)	(1,0)	(1,0)	(1,0)	(1,0)	(1,0)	(1,0)	(1,0)	(1,0)	(1,0)	(1,0)	
L1D -473>	(-1,3)	(2,3)	(1,0)	(1,0)	(1,0)	(1,0)	(1,0)	(1,0)	(1,0)	(1,0)	(1,0)	(1,0)	(1,0)	(1,0)	(1,0)	(1,0)	
L1D -472>	(113,2)	(98,3)	(-8,1)	(63,1)	(2,7)	(1,1)	(1,0)	(1,0)	(1,0)	(1,0)	(1,0)	(1,0)	(1,0)	(1,0)	(1,0)	(1,0)	
L1D -471>	(343,3)	(1,2)	(97,3)	(2,1)	(1,0)	(1,0)	(1,0)	(1,0)	(1,0)	(1,0)	(1,0)	(1,0)	(1,0)	(1,0)	(1,0)	(1,0)	
L1D -470>	(1,1)	(2,3)	(281,1)	(96,9)	(278,1)	(1,0)	(1,0)	(1,0)	(1,0)	(1,0)	(1,0)	(1,0)	(1,0)	(1,0)	(1,0)	(1,0)	
L1D -469>	(27,1)	(26,1)	(278,1)	(1,1)	(1,0)	(1,0)	(1,0)	(1,0)	(1,0)	(1,0)	(1,0)	(1,0)	(1,0)	(1,0)	(1,0)	(1,0)	
L1D -468>	(2,5)	(6,1)	(1,2)	(4,1)	(1,0)	(1,0)	(1,0)	(1,0)	(1,0)	(1,0)	(1,0)	(1,0)	(1,0)	(1,0)	(1,0)	(1,0)	
L1D -467>	(1,6)	(3,2)	(1,0)	(1,0)	(1,0)	(1,0)	(1,0)	(1,0)	(1,0)	(1,0)	(1,0)	(1,0)	(1,0)	(1,0)	(1,0)	(1,0)	
L1D -466>	(-1,1)	(330,31)	(2,6)	(4,3)	(42,1)	(254,3)	(10,1)	(1,0)	(1,0)	(1,0)	(1,0)	(1,0)	(1,0)	(1,0)	(1,0)	(1,0)	
L1D -465>	(122,1)	(0,2)	(114,1)	(120,1)	(2,3)	(1,0)	(1,0)	(1,0)	(1,0)	(1,0)	(1,0)	(1,0)	(1,0)	(1,0)	(1,0)	(1,0)	
L1D -464>	(0,5)	(113,4)	(-42,2)	(41,1)	(448,4)	(2,1)	(1,0)	(1,0)	(1,0)	(1,0)	(1,0)	(1,0)	(1,0)	(1,0)	(1,0)	(1,0)	
L1D -463>	(2,2)	(-42,2)	(1,0)	(1,0)	(1,0)	(1,0)	(1,0)	(1,0)	(1,0)	(1,0)	(1,0)	(1,0)	(1,0)	(1,0)	(1,0)	(1,0)	
L1D -462>	(277,1)	(6,1)	(-42,1)	(104,1)	(1,0)	(1,0)	(1,0)	(1,0)	(1,0)	(1,0)	(1,0)	(1,0)	(1,0)	(1,0)	(1,0)	(1,0)	
L1D -461>	(1,0)	(1,0)	(1,0)	(1,0)	(1,0)	(1,0)	(1,0)	(1,0)	(1,0)	(1,0)	(1,0)	(1,0)	(1,0)	(1,0)	(1,0)	(1,0)	
L1D -460>	(78,1)	(-5,1)	(144,1)	(260,1)	(67,2)	(460,1)	(1,0)	(1,0)	(1,0)	(1,0)	(1,0)	(1,0)	(1,0)	(1,0)	(1,0)	(1,0)	
L1D -459>	(6,1)	(249,1)	(459,2)	(66,1)	(1,0)	(1,0)	(1,0)	(1,0)	(1,0)	(1,0)	(1,0)	(1,0)	(1,0)	(1,0)	(1,0)	(1,0)	
L1D -458>	(2,2)	(1,1)	(13,1)	(458,8)	(246,1)	(1,0)	(1,0)	(1,0)	(1,0)	(1,0)	(1,0)	(1,0)	(1,0)	(1,0)	(1,0)	(1,0)	
L1D -457>	(2,2)	(122,4)	(106,1)	(329,5)	(350,3)	(332,2)	(322,1)	(-42,1)	(1,0)	(1,0)	(1,0)	(1,0)	(1,0)	(1,0)	(1,0)	(1,0)	
L1D -456>	(8,3)	(113,1)	(0,2)	(4,3)	(16,1)	(260,2)	(448,30)	(-8,2)	(-42,1)	(464,1)	(82,1)	(1,0)	(1,0)	(1,0)	(1,0)	(1,0)	
L1D -455>	(104,5)	(274,1)	(2,2)	(3,1)	(1,0)	(1,0)	(1,0)	(1,0)	(1,0)	(1,0)	(1,0)	(1,0)	(1,0)	(1,0)	(1,0)	(1,0)	
L1D -454>	(251,1)	(247,10)	(6,1)	(267,1)	(295,1)	(80,5)	(0,1)	(-42,1)	(1,0)	(1,0)	(1,0)	(1,0)	(1,0)	(1,0)	(1,0)	(1,0)	
L1D -453>	(-1,1)	(1,1)	(453,10)	(0,1)	(287,1)	(279,1)	(1,0)	(1,0)	(1,0)	(1,0)	(1,0)	(1,0)	(1,0)	(1,0)	(1,0)	(1,0)	
L1D -452>	(4,2)	(-42,1)	(270,1)	(38,14)	(150,2)	(188,2)	(263,4)	(75,1)	(1,0)	(1,0)	(1,0)	(1,0)	(1,0)	(1,0)	(1,0)	(1,0)	
L1D -451>	(2,3)	(122,2)	(263,1)	(323,1)	(37,20)	(75,2)	(150,1)	(112,1)	(262,1)	(1,0)	(1,0)	(1,0)	(1,0)	(1,0)	(1,0)	(1,0)	
L1D -450>	(2,3)	(115,10)	(1,2)	(304,1)	(400,1)	(384,1)	(314,7)	(270,1)	(392,1)	(1,0)	(1,0)	(1,0)	(1,0)	(1,0)	(1,0)	(1,0)	
L1D -449>	(114,6)	(312,3)	(0,9)	(122,1)	(50,1)	(2,31)	(1,3)	(-42,1)	(1,0)	(1,0)	(1,0)	(1,0)	(1,0)	(1,0)	(1,0)	(1,0)	
L1D -448>	(113,9)	(122,4)	(3,1)	(-42,3)	(121,7)	(384,22)	(416,17)	(112,17)	(432,8)	(448,98)	(480,40)	(464,3)	(119,1)	(424,2)	(456,5)	(-8,2)	
L1D -447>	(319,7)	(447,9)	(-2,3)	(8,2)	(0,20)	(121,2)	(119,1)	(384,3)	(7,1)	(112,1)	(14,2)	(444,1)	(311,2)	(1,0)	(1,0)	(1,0)	
L1D -446>	(446,1)	(2,1)	(4,2)	(319,2)	(318,1)	(0,3)	(459,1)	(1,0)	(1,0)	(1,0)	(1,0)	(1,0)	(1,0)	(1,0)	(1,0)	(1,0)	
L1D -445>	(319,1)	(445,1)	(1,0)	(1,0)	(1,0)	(1,0)	(1,0)	(1,0)	(1,0)	(1,0)	(1,0)	(1,0)	(1,0)	(1,0)	(1,0)	(1,0)	
L1D -444>	(0,3)	(2,2)	(144,2)	(93,1)	(67,3)	(260,6)	(252,1)	(-8,1)	(444,1)	(72,1)	(111,1)	(1,0)	(1,0)	(1,0)	(1,0)	(1,0)	
L1D -443>	(0,1)	(-26,3)	(66,1)	(443,1)	(1,0)	(1,0)	(1,0)	(1,0)	(1,0)	(1,0)	(1,0)	(1,0)	(1,0)	(1,0)	(1,0)	(1,0)	
L1D -442>	(1,3)	(113,2)	(2,2)	(1,0)	(1,0)	(1,0)	(1,0)	(1,0)	(1,0)	(1,0)	(1,0)	(1,0)	(1,0)	(1,0)	(1,0)	(1,0)	
L1D -441>	(115,4)	(114,1)	(106,2)	(-8,1)	(273,3)	(-6,2)	(-42,1)	(1,0)	(1,0)	(1,0)	(1,0)	(1,0)	(1,0)	(1,0)	(1,0)	(1,0)	
L1D -440>	(-8,33)	(114,2)	(312,2)	(113,4)	(440,6)	(42,1)	(4,1)	(2,1)	(459,1)	(0,2)	(-42,2)	(63,2)	(1,0)	(1,0)	(1,0)	(1,0)	
L1D -439>	(113,7)	(0,25)	(-9,2)	(232,4)	(-8,1)	(459,2)	(324,1)	(336,1)	(328,1)	(306,1)	(307,1)	(308,2)	(310,2)	(326,1)	(331,1)	(338,1)	
L1D -438>	(459,12)	(438,28)	(212,2)	(276,2)	(311,5)	(444,1)	(349,1)	(315,1)	(330,1)	(336,1)	(358,1)	(367,1)	(306,1)	(340,1)	(338,1)	(328,1)	
L1D -437>	(1,1)	(438,65)	(212,1)	(437,2)	(311,10)	(458,3)	(434,3)	(274,1)	(1,0)	(1,0)	(1,0)	(1,0)	(1,0)	(1,0)	(1,0)	(1,0)	
L1D -436>	(0,2)	(1,3)	(4,0)	(438,68)	(434,9)	(295,5)	(212,0)	(2,1)	(1,0)	(1,0)	(1,0)	(1,0)	(1,0)	(1,0)	(1,0)	(1,0)	
L1D -435>	(1,3)	(435,67)	(294,11)	(434,4)	(438,3)	(264,2)	(431,4)	(210,5)	(261,2)	(93,7)	(117,1)	(92,2)	(104,1)	(105,2)	(250,2)	(260,1)	
L1D -434>	(0,15)	(1,2)	(435,44)	(438,76)	(295,18)	(212,9)	(434,22)	(210,1)	(4,1)	(1,0)	(1,0)	(1,0)	(1,0)	(1,0)	(1,0)	(1,0)	
L1D -433>	(-42,1)	(3,0)	(0,20)	(1,4)	(435,85)	(294,4)	(8,0)	(-3,29)	(210,6)	(431,3)	(2,0)	(1,0)	(1,0)	(1,0)	(1,0)	(1,0)	
L1D -432>	(-1,1)	(0,2)	(-42,2)	(238,3)	(432,2)	(1,0)	(1,0)	(1,0)	(1,0)	(1,0)	(1,0)	(1,0)	(1,0)	(1,0)	(1,0)	(1,0)	
L1D -431>	(0,9)	(104,2)	(-2,1)	(1,72)	(431,41)	(2,1)	(294,11)	(210,7)	(435,15)	(92,1)	(8,1)	(1,0)	(1,0)	(1,0)	(1,0)	(1,0)	
L1D -430>	(1,118)	(0,9)	(206,1)	(4,1)	(431,1)	(261,4)	(121,1)	(16,1)	(1,0)	(1,0)	(1,0)	(1,0)	(1,0)	(1,0)	(1,0)	(1,0)	
L1D -429>	(1,121)	(0,10)	(450,1)	(4,1)	(221,1)	(8,1)	(79,2)	(93,1)	(1,0)	(1,0)	(1,0)	(1,0)	(1,0)	(1,0)	(1,0)	(1,0)	
L1D -428>	(1,12)	(13,1)	(2,1)	(8,3)	(0,1)	(-42,1)	(1,0)	(1,0)	(1,0)	(1,0)	(1,0)	(1,0)	(1,0)	(1,0)	(1,0)	(1,0)	
L1D -427>	(1,115)	(0,15)	(8,1)	(-17,1)	(203,1)	(427,53)	(290,5)	(2,1)	(423,1)	(1,0)	(1,0)	(1,0)	(1,0)	(1,0)	(1,0)	(1,0)	
L1D -426>	(0,10)	(427,108)	(423,6)	(-3,3)	(203,1)	(1,3)	(426,3)	(290,3)	(270,1)	(2,2)	(8,1)	(1,0)	(1,0)	(1,0)	(1,0)	(1,0)	
L1D -425>	(8,1)	(1,6)	(0,4)	(427,125)	(423,5)	(203,9)	(290,11)	(2,1)	(1,0)	(1,0)	(1,0)	(1,0)	(1,0)	(1,0)	(1,0)	(1,0)	
L1D -424>	(0,2)	(427,5)	(290,1)	(8,2)	(423,3)	(-42,1)	(297,1)	(353,1)	(1,0)	(1,0)	(1,0)	(1,0)	(1,0)	(1,0)	(1,0)	(1,0)	
L1D -423>	(0,18)	(1,112)	(114,0)	(423,39)	(290,13)	(-1,0)	(427,18)	(203,2)	(428,0)	(-4,1)	(94,0)	(12,0)	(1,0)	(1,0)	(1,0)	(1,0)	
L1D -422>	(0,1)	(1,94)	(427,1)	(101,1)	(1,0)	(1,0)	(1,0)	(1,0)	(1,0)	(1,0)	(1,0)	(1,0)	(1,0)	(1,0)	(1,0)	(1,0)	
L1D -421>	(1,103)	(0,2)	(79,1)	(335,0)	(16,0)	(1,0)	(1,0)	(1,0)	(1,0)	(1,0)	(1,0)	(1,0)	(1,0)	(1,0)	(1,0)	(1,0)	
L1D -420>	(1,18)	(0,18)	(6,2)	(2,1)	(-3,19)	(420,1)	(79,1)	(3,2)	(1,0)	(1,0)	(1,0)	(1,0)	(1,0)	(1,0)	(1,0)	(1,0)	
L1D -419>	(1,119)	(0,10)	(419,34)	(286,9)	(415,0)	(1,0)	(1,0)	(1,0)	(1,0)	(1,0)	(1,0)	(1,0)	(1,0)	(1,0)	(1,0)	(1,0)	
L1D -418>	(196,1)	(419,101)	(0,2)	(1,3)	(415,1)	(8,0)	(1,0)	(1,0)	(1,0)	(1,0)	(1,0)	(1,0)	(1,0)	(1,0)	(1,0)	(1,0)	
L1D -417>	(118,1)	(-3,1)	(122,1)	(419,122)	(286,16)	(196,10)	(1,4)	(8,0)	(415,8)	(0,2)	(113,1)	(2,0)	(1,0)	(1,0)	(1,0)	(1,0)	
L1D -416>	(0,5)	(400,4)	(1,1)	(260,6)	(209,9)	(416,18)	(-81,1)	(204,3)	(252,4)	(188,1)	(128,2)	(5,3)	(415,9)	(384,3)	(414,1)	(202,2)	
L1D -415>	(0,38)	(1,104)	(415,94)	(419,32)	(286,42)	(122,2)	(120,1)	(268,1)	(115,1)	(2,4)	(196,1)	(287,1)	(-2,1)	(-15,1)	(-8,1)	(1,0)	
L1D -414>	(1,92)	(0,3)	(-64,1)	(-3,1)	(188,1)	(38,2)	(225,1)	(384,1)	(1,0)	(1,0)	(1,0)	(1,0)	(1,0)	(1,0)	(1,0)	(1,0)	
L1D -413>	(1,102)	(0,3)	(271,0)	(10,0)	(1,0)	(1,0)	(1,0)	(1,0)	(1,0)	(1,0)	(1,0)	(1,0)	(1,0)	(1,0)	(1,0)	(1,0)	
L1D -412>	(1,9)	(0,29)	(6,1)	(-3,19)	(270,5)	(222,1)	(3,1)	(322,1)	(1,0)	(1,0)	(1,0)	(1,0)	(1,0)	(1,0)	(1,0)	(1,0)	
L1D -411>	(0,24)	(1,101)	(407,1)	(-3,2)	(411,10)	(221,1)	(282,4)	(229,0)	(8,0)	(1,0)	(1,0)	(1,0)	(1,0)	(1,0)	(1,0)	(1,0)	
L1D -410>	(411,123)	(1,1)	(407,3)	(440,1)	(189,1)	(0,2)	(-3,1)	(1,0)	(1,0)	(1,0)	(1,0)	(1,0)	(1,0)	(1,0)	(1,0)	(1,0)	
L1D -409>	(261,1)	(0,5)	(411,54)	(-64,47)	(2,1)	(282,9)	(-6,1)	(197,1)	(1,1)	(407,1)	(189,3)	(1,0)	(1,0)	(1,0)	(1,0)	(1,0)	
L1D -408>	(407,4)	(206,5)	(252,1)	(3,1)	(-9,1)	(-2,1)	(113,1)	(411,4)	(440,1)	(104,3)	(384,1)	(282,1)	(1,1)	(189,1)	(1,0)	(1,0)	
L1D -407>	(0,20)	(1,70)	(407,94)	(377,3)	(411,27)	(282,7)	(94,5)	(-3,1)	(171,1)	(349,1)	(8,1)	(499,1)	(28,2)	(412,1)	(91,1)	(4,2)	
L1D -406>	(297,1)	(1,104)	(4,0)	(79,0)	(278,0)	(219,0)	(34,0)	(0,1)	(426,0)	(311,1)	(1,0)	(1,0)	(1,0)	(1,0)	(1,0)	(1,0)	
L1D -405>	(1,77)	(311,1)	(255,0)	(191,0)	(261,0)	(0,0)	(275,0)	(316,0)	(325,0)	(334,0)	(297,0)	(296,0)	(273,0)	(305,0)	(304,0)	(282,0)	
L1D -404>	(0,1)	(-64,1)	(2,1)	(1,13)	(4,1)	(16,2)	(9,2)	(313,1)	(1,0)	(1,0)	(1,0)	(1,0)	(1,0)	(1,0)	(1,0)	(1,0)	
L1D -403>	(93,41)	(0,9)	(97,42)	(105,40)	(92,40)	(266,16)	(1,103)	(104,77)	(403,37)	(113,33)	(90,30)	(250,80)	(121,19)	(114,40)	(94,3)	(117,27)	
L1D -402>	(261,5)	(93,14)	(113,22)	(104,37)	(265,9)	(114,7)	(264,11)	(94,1)	(117,4)	(250,5)	(92,10)	(97,23)	(95,6)	(105,21)	(121,16)	(403,107)	
L1D -401>	(318,2)	(182,4)	(260,2)	(398,2)	(278,2)	(399,2)	(250,1)	(11,1)	(196,1)	(403,109)	(121,1)	(1,3)	(197,1)	(8,3)	(313,1)	(404,1)	
L1D -400>	(0,2)	(-64,3)	(254,1)	(400,4)	(464,1)	(121,2)	(2,1)	(112,4)	(122,41)	(384,2)	(105,1)	(363,3)	(399,1)	(278,3)	(403,2)	(1,1)	
L1D -399>	(0,6)	(1,66)	(399,50)	(250,7)	(120,3)	(403,32)	(392,2)	(278,12)	(90,8)	(105,1)	(396,1)	(3,2)	(92,2)	(93,1)	(104,3)	(265,5)	
L1D -398>	(93,11)	(97,23)	(2,6)	(-42,18)	(105,2)	(0,39)	(250,33)	(264,5)	(113,9)	(121,20)	(1,104)	(8,4)	(-3,24)	(3,4)	(92,16)	(104,56)	
L1D -397>	(93,1)	(250,1)	(120,1)	(1,73)	(10,0)	(91,1)	(448,0)	(0,0)	(-26,0)	(1,0)	(1,0)	(1,0)	(1,0)	(1,0)	(1,0)	(1,0)	
L1D -396>	(-42,1)	(4,1)	(2,1)	(-26,1)	(1,4)	(8,1)	(3,1)	(0,3)	(271,1)	(-9,1)	(-64,2)	(112,1)	(250,1)	(197,1)	(278,1)	(1,0)	
L1D -395>	(-1,2)	(102,1)	(101,2)	(0,1)	(1,47)	(-64,3)	(104,5)	(25,2)	(265,1)	(250,7)	(403,1)	(395,37)	(92,6)	(261,1)	(94,3)	(260,1)	
L1D -394>	(101,3)	(114,1)	(3,3)	(200,3)	(29,1)	(395,49)	(403,1)	(401,1)	(202,1)	(396,2)	(186,2)	(175,4)	(394,1)	(316,1)	(274,1)	(106,5)	
L1D -393>	(-64,6)	(393,13)	(250,1)	(255,1)	(8,4)	(0,3)	(128,1)	(197,5)	(395,43)	(391,5)	(-68,1)	(204,1)	(238,1)	(206,1)	(235,1)	(175,4)	
L1D -392>	(183,1)	(392,3)	(-1,1)	(-8,3)	(67,1)	(238,1)	(395,1)	(440,10)	(121,1)	(391,2)	(2,1)	(-16,1)	(1,0)	(1,0)	(1,0)	(1,0)	
L1D -391>	(361,3)	(197,2)	(255,3)	(333,2)	(476,2)	(395,10)	(391,31)	(78,10)	(460,2)	(332,2)	(1,37)	(-64,10)	(11,5)	(274,4)	(0,1)	(4,1)	
L1D -390>	(0,3)	(-64,1)	(2,2)	(183,2)	(255,1)	(1,88)	(264,1)	(114,4)	(115,1)	(107,2)	(1,0)	(1,0)	(1,0)	(1,0)	(1,0)	(1,0)	
L1D -389>	(-64,4)	(250,1)	(78,0)	(205,0)	(470,0)	(385,1)	(2,1)	(261,2)	(183,0)	(197,1)	(313,0)	(190,0)	(300,0)	(0,1)	(-55,0)	(1,74)	
L1D -388>	(388,1)	(2,2)	(-8,2)	(0,4)	(-16,10)	(462,1)	(-72,2)	(56,1)	(-1,1)	(8,1)	(-3,11)	(1,4)	(1,0)	(1,0)	(1,0)	(1,0)	
L1D -387>	(2,1)	(387,7)	(192,1)	(1,59)	(0,1)	(104,3)	(118,1)	(1,0)	(1,0)	(1,0)	(1,0)	(1,0)	(1,0)	(1,0)	(1,0)	(1,0)	
L1D -386>	(1,2)	(2,2)	(-64,9)	(208,1)	(121,1)	(387,21)	(0,1)	(296,1)	(-3,2)	(3,1)	(97,3)	(104,2)	(94,1)	(1,0)	(1,0)	(1,0)	
L1D -385>	(0,3)	(-64,7)	(113,2)	(2,4)	(385,2)	(51,1)	(8,34)	(122,20)	(-67,1)	(-2,1)	(383,2)	(387,5)	(336,1)	(313,2)	(404,1)	(197,3)	
L1D -384>	(121,13)	(0,6)	(122,1)	(-64,5)	(384,105)	(400,13)	(319,1)	(392,6)	(113,1)	(111,1)	(416,28)	(112,5)	(-72,5)	(448,2)	(440,3)	(105,1)	
L1D -383>	(260,1)	(383,46)	(120,2)	(0,2)	(-64,7)	(8,1)	(121,1)	(188,1)	(288,2)	(5,2)	(394,1)	(401,1)	(387,12)	(1,9)	(270,3)	(6,2)	
L1D -382>	(0,1)	(377,2)	(387,2)	(4,2)	(271,1)	(120,1)	(197,2)	(419,9)	(183,1)	(1,86)	(-128,1)	(415,1)	(266,1)	(1,0)	(1,0)	(1,0)	
L1D -381>	(-64,3)	(197,2)	(8,2)	(1,23)	(1,0)	(1,0)	(1,0)	(1,0)	(1,0)	(1,0)	(1,0)	(1,0)	(1,0)	(1,0)	(1,0)	(1,0)	
L1D -380>	(250,7)	(0,3)	(-64,3)	(380,3)	(55,28)	(252,3)	(-16,2)	(296,2)	(-72,2)	(238,2)	(264,1)	(348,1)	(-15,1)	(270,1)	(312,1)	(3,2)	
L1D -379>	(1,31)	(286,1)	(-64,1)	(-80,1)	(0,5)	(267,2)	(197,2)	(122,1)	(379,6)	(270,1)	(363,5)	(1,0)	(1,0)	(1,0)	(1,0)	(1,0)	
L1D -378>	(-48,4)	(200,9)	(115,5)	(293,2)	(3,5)	(380,18)	(379,2)	(16,7)	(0,6)	(-16,2)	(-64,3)	(-32,4)	(8,1)	(182,1)	(378,15)	(63,1)	
L1D -377>	(0,12)	(1,2)	(114,7)	(312,6)	(126,2)	(5,11)	(-64,25)	(313,3)	(377,46)	(379,1)	(60,1)	(344,1)	(8,10)	(197,31)	(282,1)	(286,1)	
L1D -376>	(113,11)	(51,12)	(368,2)	(345,4)	(8,37)	(16,6)	(0,9)	(337,3)	(98,2)	(440,12)	(55,8)	(245,3)	(375,1)	(242,1)	(116,1)	(-12,2)	
L1D -375>	(347,4)	(296,3)	(92,2)	(379,6)	(95,2)	(375,25)	(60,3)	(-3,2)	(1,3)	(372,1)	(8,2)	(-55,3)	(197,7)	(-128,8)	(183,4)	(97,3)	
L1D -374>	(-64,1)	(8,5)	(246,1)	(0,3)	(271,2)	(96,9)	(407,3)	(411,3)	(363,1)	(1,21)	(103,1)	(1,0)	(1,0)	(1,0)	(1,0)	(1,0)	
L1D -373>	(-64,21)	(1,9)	(16,2)	(0,1)	(243,2)	(271,14)	(394,1)	(259,1)	(252,1)	(244,1)	(284,1)	(250,1)	(302,1)	(264,1)	(275,1)	(265,1)	
L1D -372>	(0,25)	(372,3)	(6,2)	(55,1)	(468,1)	(-72,6)	(1,0)	(1,0)	(1,0)	(1,0)	(1,0)	(1,0)	(1,0)	(1,0)	(1,0)	(1,0)	
L1D -371>	(176,1)	(174,1)	(8,5)	(16,3)	(-64,1)	(-8,3)	(4,1)	(1,15)	(46,8)	(1,0)	(1,0)	(1,0)	(1,0)	(1,0)	(1,0)	(1,0)	
L1D -370>	(0,1)	(2,1)	(8,10)	(25,30)	(207,1)	(1,2)	(251,1)	(-8,1)	(458,1)	(1,0)	(1,0)	(1,0)	(1,0)	(1,0)	(1,0)	(1,0)	
L1D -369>	(-1,1)	(106,1)	(-64,9)	(277,1)	(274,1)	(8,7)	(16,1)	(160,1)	(157,2)	(367,1)	(1,0)	(1,0)	(1,0)	(1,0)	(1,0)	(1,0)	
L1D -368>	(446,1)	(437,2)	(368,30)	(361,16)	(438,25)	(8,3)	(440,1)	(439,6)	(-64,5)	(55,17)	(432,1)	(253,2)	(252,6)	(245,1)	(309,2)	(259,2)	
L1D -367>	(104,2)	(4,2)	(8,1)	(-64,25)	(368,2)	(5,3)	(22,1)	(0,1)	(367,1)	(1,0)	(1,0)	(1,0)	(1,0)	(1,0)	(1,0)	(1,0)	
L1D -366>	(1,1)	(8,1)	(3,9)	(5,2)	(-64,5)	(6,2)	(78,1)	(241,1)	(399,1)	(1,0)	(1,0)	(1,0)	(1,0)	(1,0)	(1,0)	(1,0)	
L1D -365>	(-64,57)	(369,2)	(0,1)	(1,0)	(1,0)	(1,0)	(1,0)	(1,0)	(1,0)	(1,0)	(1,0)	(1,0)	(1,0)	(1,0)	(1,0)	(1,0)	
L1D -364>	(-64,83)	(79,1)	(7,1)	(50,2)	(52,9)	(2,2)	(316,2)	(364,2)	(51,6)	(363,1)	(227,1)	(236,3)	(353,1)	(49,1)	(365,1)	(-80,2)	
L1D -363>	(-1,8)	(51,9)	(-64,1)	(361,1)	(75,61)	(355,1)	(-8,1)	(1,1)	(5,2)	(367,2)	(46,1)	(1,0)	(1,0)	(1,0)	(1,0)	(1,0)	
L1D -362>	(50,3)	(36,1)	(52,1)	(-64,8)	(51,1)	(27,3)	(464,1)	(17,1)	(-8,1)	(0,1)	(341,1)	(366,1)	(314,1)	(1,0)	(1,0)	(1,0)	
L1D -361>	(0,1)	(-64,29)	(-16,1)	(354,2)	(116,1)	(359,1)	(44,1)	(-8,3)	(361,6)	(49,1)	(-2,1)	(1,1)	(366,1)	(340,1)	(1,0)	(1,0)	
L1D -360>	(48,14)	(1,2)	(358,5)	(6,6)	(313,3)	(357,1)	(51,1)	(-128,13)	(40,1)	(64,5)	(-64,9)	(360,12)	(361,14)	(2,1)	(72,1)	(47,7)	
L1D -359>	(1,3)	(0,6)	(331,5)	(47,10)	(76,4)	(93,3)	(343,1)	(267,1)	(-2,1)	(-3,73)	(-128,2)	(364,1)	(8,3)	(-64,2)	(359,2)	(3,3)	
L1D -358>	(358,1)	(46,5)	(6,1)	(0,9)	(364,2)	(363,2)	(-3,34)	(2,1)	(-64,1)	(347,1)	(275,1)	(3,6)	(243,1)	(128,6)	(362,2)	(80,6)	
L1D -357>	(351,1)	(0,1)	(-128,4)	(357,2)	(79,2)	(350,1)	(47,1)	(48,1)	(46,1)	(42,1)	(1,0)	(1,0)	(1,0)	(1,0)	(1,0)	(1,0)	
L1D -356>	(361,1)	(2,1)	(4,1)	(343,2)	(0,2)	(79,1)	(356,2)	(47,4)	(347,1)	(41,1)	(48,1)	(113,1)	(447,1)	(353,1)	(1,0)	(1,0)	
L1D -355>	(43,3)	(3,3)	(438,2)	(-16,5)	(339,1)	(0,1)	(341,6)	(8,2)	(467,1)	(347,1)	(47,1)	(44,1)	(355,1)	(265,1)	(447,3)	(279,1)	
L1D -354>	(-64,6)	(364,1)	(13,2)	(0,1)	(45,2)	(474,1)	(354,1)	(1,0)	(1,0)	(1,0)	(1,0)	(1,0)	(1,0)	(1,0)	(1,0)	(1,0)	
L1D -353>	(-64,1)	(41,1)	(243,1)	(342,1)	(122,1)	(16,1)	(47,1)	(1,1)	(343,1)	(447,1)	(1,0)	(1,0)	(1,0)	(1,0)	(1,0)	(1,0)	
L1D -352>	(352,3)	(360,1)	(1,1)	(0,1)	(344,3)	(-64,4)	(-128,4)	(354,1)	(471,3)	(122,1)	(253,1)	(361,1)	(439,1)	(2,1)	(357,2)	(339,1)	
L1D -351>	(-128,1)	(121,1)	(4,1)	(122,1)	(39,1)	(44,1)	(351,1)	(29,1)	(96,3)	(15,1)	(363,2)	(266,1)	(1,1)	(1,0)	(1,0)	(1,0)	
L1D -350>	(-64,1)	(4,1)	(364,1)	(128,1)	(471,1)	(120,1)	(2,1)	(-79,1)	(39,1)	(-128,1)	(-1,1)	(48,1)	(1,0)	(1,0)	(1,0)	(1,0)	
L1D -349>	(-128,3)	(48,1)	(351,1)	(66,1)	(321,1)	(79,1)	(9,1)	(244,2)	(225,1)	(17,1)	(37,2)	(1,0)	(1,0)	(1,0)	(1,0)	(1,0)	
L1D -348>	(-8,6)	(36,1)	(4,1)	(2,1)	(-32,1)	(122,1)	(-16,1)	(1,0)	(1,0)	(1,0)	(1,0)	(1,0)	(1,0)	(1,0)	(1,0)	(1,0)	
L1D -347>	(347,2)	(262,1)	(252,1)	(364,1)	(-64,1)	(270,1)	(2,1)	(360,3)	(332,1)	(34,1)	(1,0)	(1,0)	(1,0)	(1,0)	(1,0)	(1,0)	
L1D -346>	(466,32)	(364,1)	(-64,2)	(358,2)	(360,2)	(1,0)	(1,0)	(1,0)	(1,0)	(1,0)	(1,0)	(1,0)	(1,0)	(1,0)	(1,0)	(1,0)	
L1D -345>	(-64,2)	(275,2)	(-16,3)	(243,11)	(297,2)	(-3,2)	(-47,17)	(-128,2)	(317,1)	(22,11)	(3,3)	(23,16)	(0,2)	(165,1)	(-1,1)	(-22,1)	
L1D -344>	(-16,5)	(0,4)	(-64,2)	(-128,3)	(-8,8)	(363,2)	(344,1)	(-7,5)	(106,2)	(458,1)	(-6,1)	(356,1)	(1,0)	(1,0)	(1,0)	(1,0)	
L1D -343>	(275,23)	(8,4)	(1,1)	(274,1)	(277,1)	(364,1)	(-128,9)	(3,1)	(363,2)	(223,3)	(358,1)	(359,1)	(-64,7)	(113,1)	(1,0)	(1,0)	
L1D -342>	(275,1)	(2,1)	(363,1)	(-128,1)	(360,1)	(334,1)	(1,0)	(1,0)	(1,0)	(1,0)	(1,0)	(1,0)	(1,0)	(1,0)	(1,0)	(1,0)	
L1D -341>	(364,1)	(-64,5)	(3,1)	(1,0)	(1,0)	(1,0)	(1,0)	(1,0)	(1,0)	(1,0)	(1,0)	(1,0)	(1,0)	(1,0)	(1,0)	(1,0)	
L1D -340>	(-128,2)	(0,2)	(-64,3)	(2,2)	(454,2)	(-1,1)	(453,11)	(357,1)	(-6,1)	(1,0)	(1,0)	(1,0)	(1,0)	(1,0)	(1,0)	(1,0)	
L1D -339>	(27,5)	(-64,11)	(338,1)	(458,6)	(342,6)	(26,8)	(22,1)	(360,2)	(258,2)	(-1,2)	(25,1)	(23,2)	(461,1)	(0,3)	(1,0)	(1,0)	
L1D -338>	(275,7)	(424,2)	(337,4)	(26,4)	(23,2)	(-8,1)	(335,1)	(24,4)	(146,1)	(-128,2)	(458,6)	(466,4)	(251,1)	(247,1)	(148,2)	(338,3)	
L1D -337>	(-1,1)	(26,2)	(243,5)	(274,2)	(275,39)	(336,1)	(283,2)	(27,1)	(242,2)	(337,4)	(316,8)	(361,1)	(424,1)	(-128,2)	(347,1)	(25,1)	
L1D -336>	(275,2)	(338,2)	(25,2)	(24,9)	(-128,14)	(5,1)	(471,1)	(122,1)	(-64,5)	(352,1)	(335,2)	(148,1)	(52,1)	(1,1)	(320,1)	(-1,1)	
L1D -335>	(-64,47)	(23,2)	(313,3)	(334,2)	(15,14)	(2,1)	(-128,10)	(112,3)	(344,1)	(315,1)	(-3,2)	(-15,1)	(1,0)	(1,0)	(1,0)	(1,0)	
L1D -334>	(270,2)	(339,1)	(283,2)	(286,1)	(331,1)	(122,1)	(362,1)	(-11,122)	(-64,8)	(115,1)	(337,1)	(22,2)	(-51,1)	(1,0)	(1,0)	(1,0)	
L1D -333>	(313,2)	(66,1)	(0,1)	(333,2)	(332,1)	(21,1)	(325,1)	(1,0)	(1,0)	(1,0)	(1,0)	(1,0)	(1,0)	(1,0)	(1,0)	(1,0)	
L1D -332>	(-128,8)	(20,4)	(122,1)	(332,3)	(313,1)	(314,1)	(1,0)	(1,0)	(1,0)	(1,0)	(1,0)	(1,0)	(1,0)	(1,0)	(1,0)	(1,0)	
L1D -331>	(322,8)	(-128,14)	(2,1)	(0,4)	(315,1)	(494,1)	(-64,17)	(339,1)	(323,2)	(-62,1)	(19,4)	(330,1)	(112,1)	(324,1)	(1,0)	(1,0)	
L1D -330>	(329,6)	(276,2)	(458,1)	(0,11)	(283,1)	(4,2)	(6,2)	(267,5)	(18,2)	(-64,1)	(229,2)	(450,3)	(268,3)	(330,1)	(126,1)	(15,2)	
L1D -329>	(329,2)	(14,1)	(243,1)	(0,6)	(239,1)	(139,1)	(2,1)	(130,1)	(-128,5)	(15,1)	(17,2)	(313,2)	(328,2)	(458,1)	(1,0)	(1,0)	
L1D -328>	(7,14)	(-64,7)	(122,2)	(-128,10)	(10,1)	(313,2)	(2,4)	(312,2)	(328,1)	(-6,4)	(16,2)	(13,1)	(1,0)	(1,0)	(1,0)	(1,0)	
L1D -327>	(8,4)	(5,10)	(-128,2)	(-1,2)	(-64,2)	(384,1)	(448,1)	(327,75)	(313,1)	(325,1)	(14,1)	(1,0)	(1,0)	(1,0)	(1,0)	(1,0)	
L1D -326>	(313,4)	(4,2)	(-128,13)	(2,5)	(-55,1)	(123,1)	(120,1)	(0,1)	(-64,8)	(459,1)	(-52,8)	(-4,1)	(-51,2)	(-3,1)	(6,1)	(-5,1)	
L1D -325>	(-11,82)	(300,1)	(-55,1)	(113,1)	(13,4)	(328,0)	(190,0)	(321,0)	(5,0)	(-6,17)	(-14,1)	(115,0)	(-5,0)	(325,1)	(255,0)	(2,0)	
L1D -324>	(-128,3)	(113,5)	(277,1)	(122,12)	(4,1)	(2,2)	(261,1)	(15,1)	(323,1)	(313,2)	(275,2)	(-21,5)	(-1,4)	(-64,1)	(465,5)	(71,1)	
L1D -323>	(314,2)	(468,1)	(0,4)	(122,3)	(315,1)	(416,1)	(313,2)	(-69,1)	(120,1)	(1,4)	(-64,1)	(11,2)	(453,1)	(13,1)	(112,1)	(10,1)	
L1D -322>	(267,5)	(409,4)	(10,3)	(146,6)	(67,3)	(131,2)	(313,1)	(123,3)	(-63,2)	(315,7)	(322,4)	(0,48)	(96,2)	(128,5)	(6,1)	(-3,32)	
L1D -321>	(8,2)	(-1,4)	(2,2)	(90,1)	(-64,24)	(321,6)	(66,2)	(349,1)	(454,2)	(0,2)	(499,1)	(6,1)	(345,1)	(1,0)	(1,0)	(1,0)	
L1D -320>	(7,5)	(320,4)	(448,2)	(0,2)	(1,1)	(122,4)	(-40,1)	(107,1)	(114,3)	(18,1)	(-1,2)	(120,1)	(434,1)	(-64,21)	(-72,2)	(2,1)	
L1D -319>	(9,22)	(447,1)	(40,1)	(6,4)	(318,3)	(446,2)	(316,1)	(113,1)	(0,1)	(121,1)	(104,1)	(448,1)	(317,3)	(105,1)	(319,3)	(176,1)	
L1D -318>	(40,5)	(-64,15)	(91,2)	(9,17)	(111,2)	(0,5)	(4,3)	(2,1)	(317,3)	(-14,2)	(199,1)	(8,2)	(14,1)	(197,1)	(-11,1)	(-7,1)	
L1D -317>	(313,6)	(-41,2)	(4,12)	(7,2)	(-11,5)	(-6,1)	(318,1)	(317,13)	(155,1)	(315,2)	(-15,4)	(2,10)	(314,4)	(-46,1)	(316,3)	(1,3)	
L1D -316>	(0,3)	(3,3)	(-7,3)	(313,15)	(-11,12)	(314,4)	(-6,7)	(316,10)	(-2,1)	(-80,1)	(310,3)	(4,5)	(122,20)	(115,5)	(8,1)	(64,1)	
L1D -315>	(285,2)	(-49,3)	(309,2)	(-64,5)	(3,10)	(-45,2)	(303,3)	(311,2)	(299,3)	(0,5)	(-25,1)	(-39,1)	(121,3)	(-10,1)	(113,1)	(434,1)	
L1D -314>	(314,7)	(2,4)	(-4,4)	(-25,1)	(312,4)	(-64,55)	(296,1)	(326,1)	(316,3)	(0,1)	(240,1)	(-30,1)	(299,1)	(304,4)	(295,1)	(-13,1)	
L1D -313>	(-5,13)	(-2,7)	(197,11)	(313,16)	(-3,3)	(-4,8)	(310,11)	(308,4)	(-128,5)	(309,6)	(311,16)	(-6,2)	(317,2)	(298,2)	(312,8)	(300,1)	
L1D -312>	(312,27)	(314,60)	(-24,5)	(311,100)	(310,80)	(313,71)	(2,26)	(309,61)	(17,1)	(-64,17)	(292,6)	(315,77)	(319,24)	(326,9)	(13,14)	(323,19)	
L1D -311>	(32,19)	(330,6)	(-64,30)	(113,4)	(3,32)	(255,3)	(294,7)	(60,2)	(-128,8)	(-6,2)	(-37,3)	(-1,24)	(191,1)	(318,5)	(-51,1)	(319,3)	
L1D -310>	(91,5)	(1,4)	(-10,1)	(82,3)	(168,12)	(-9,3)	(4,4)	(-2,46)	(313,6)	(-17,2)	(2,2)	(3,4)	(12,3)	(309,2)	(312,6)	(302,2)	
L1D -309>	(457,21)	(-64,72)	(12,2)	(133,2)	(-52,3)	(316,6)	(-9,16)	(308,8)	(197,2)	(2,3)	(-8,2)	(-3,8)	(199,16)	(330,6)	(309,1)	(188,1)	
L1D -308>	(165,5)	(83,2)	(317,1)	(5,7)	(-42,1)	(372,1)	(2,5)	(300,1)	(299,2)	(312,4)	(-4,2)	(0,2)	(-7,1)	(16,2)	(309,1)	(101,10)	
L1D -307>	(3,2)	(440,3)	(307,2)	(-64,2)	(18,4)	(335,1)	(312,1)	(458,1)	(0,1)	(-1,2)	(339,1)	(291,1)	(1,0)	(1,0)	(1,0)	(1,0)	
L1D -306>	(-5,1)	(24,30)	(163,2)	(311,1)	(321,1)	(0,6)	(-64,1)	(3,7)	(470,1)	(93,3)	(148,1)	(299,1)	(306,3)	(310,1)	(295,3)	(317,1)	
L1D -305>	(457,10)	(-64,63)	(4,6)	(310,2)	(-11,5)	(264,3)	(275,3)	(409,2)	(8,2)	(259,1)	(-7,3)	(305,1)	(272,2)	(24,33)	(-8,3)	(7,4)	
L1D -304>	(9,1)	(0,6)	(6,6)	(7,5)	(305,1)	(311,5)	(-6,1)	(306,1)	(-14,1)	(100,1)	(-12,4)	(304,1)	(-128,50)	(4,1)	(-64,4)	(312,1)	
L1D -303>	(0,7)	(32,2)	(461,3)	(24,2)	(288,2)	(-8,2)	(381,1)	(306,1)	(323,2)	(-9,2)	(322,2)	(-64,11)	(3,1)	(27,2)	(-16,2)	(311,2)	
L1D -302>	(310,2)	(291,87)	(7,1)	(-64,7)	(1,1)	(-1,1)	(302,5)	(159,6)	(-2,9)	(409,28)	(-128,5)	(301,1)	(384,1)	(416,1)	(118,1)	(0,1)	
L1D -301>	(-64,43)	(0,9)	(457,3)	(24,14)	(449,4)	(9,9)	(-18,3)	(-8,36)	(1,2)	(301,2)	(8,1)	(306,1)	(322,1)	(-4,13)	(64,1)	(203,1)	
L1D -300>	(-64,28)	(-12,4)	(9,2)	(197,4)	(157,4)	(-8,3)	(-4,5)	(327,1)	(311,1)	(0,16)	(300,9)	(122,1)	(183,11)	(66,2)	(57,2)	(1,1)	
L1D -299>	(327,2)	(311,3)	(-11,2)	(9,1)	(310,3)	(7,1)	(246,1)	(335,1)	(-128,1)	(-76,1)	(121,2)	(448,1)	(299,1)	(-64,2)	(14,1)	(-13,1)	
L1D -298>	(1,3)	(-14,5)	(102,1)	(297,1)	(-24,13)	(113,1)	(-13,32)	(6,1)	(-64,1)	(15,1)	(298,2)	(26,1)	(-103,1)	(0,1)	(-10,1)	(-18,1)	
L1D -297>	(18,2)	(1,87)	(0,36)	(-64,11)	(457,4)	(449,2)	(264,2)	(6,3)	(297,2)	(-13,5)	(-15,1)	(-128,7)	(326,1)	(459,3)	(183,2)	(-79,1)	
L1D -296>	(-4,7)	(296,4)	(0,6)	(-64,43)	(291,25)	(18,1)	(298,1)	(-66,2)	(-128,3)	(-16,1)	(316,1)	(297,2)	(-26,2)	(-5,1)	(1,0)	(1,0)	
L1D -295>	(0,5)	(-7,2)	(409,2)	(301,51)	(82,2)	(-16,4)	(-64,1)	(355,1)	(-128,12)	(2,4)	(461,4)	(337,2)	(361,2)	(139,1)	(-17,1)	(56,1)	
L1D -294>	(12,2)	(27,3)	(-13,2)	(-2,1)	(295,1)	(255,2)	(-128,1)	(294,1)	(291,1)	(179,1)	(211,1)	(-8,5)	(-64,2)	(-24,5)	(9,1)	(15,45)	
L1D -293>	(457,8)	(264,10)	(326,15)	(459,3)	(313,2)	(272,3)	(259,1)	(458,4)	(293,6)	(330,1)	(275,1)	(288,7)	(165,2)	(197,22)	(337,6)	(361,17)	
L1D -292>	(292,33)	(451,5)	(281,2)	(295,104)	(288,2)	(317,3)	(361,13)	(-64,3)	(326,9)	(246,4)	(459,7)	(344,3)	(-2,2)	(325,2)	(337,4)	(191,1)	
L1D -291>	(255,3)	(264,2)	(458,21)	(57,2)	(48,2)	(66,3)	(263,2)	(280,2)	(298,3)	(343,2)	(347,2)	(348,2)	(325,1)	(258,1)	(183,1)	(287,3)	
L1D -290>	(1,4)	(-8,9)	(83,2)	(301,25)	(263,10)	(0,8)	(258,5)	(-22,3)	(197,6)	(342,3)	(366,1)	(377,1)	(-9,3)	(470,1)	(350,2)	(5,2)	
L1D -289>	(457,40)	(264,125)	(280,5)	(267,18)	(354,4)	(272,75)	(260,5)	(263,25)	(275,93)	(288,45)	(265,5)	(259,1)	(290,3)	(271,2)	(250,21)	(-2,4)	
L1D -288>	(-128,7)	(281,14)	(-64,2)	(249,4)	(250,4)	(255,1)	(2,3)	(263,2)	(130,1)	(288,30)	(287,1)	(256,6)	(465,4)	(336,1)	(257,2)	(29,1)	
L1D -287>	(287,4)	(451,3)	(333,2)	(-4,1)	(8,3)	(122,2)	(461,32)	(272,1)	(2,3)	(197,5)	(453,18)	(372,1)	(357,1)	(-64,4)	(279,2)	(339,1)	
L1D -286>	(393,4)	(-11,18)	(7,3)	(-64,4)	(197,2)	(384,1)	(-9,11)	(-7,62)	(-16,6)	(60,3)	(6,1)	(288,1)	(285,3)	(32,1)	(-5,4)	(-8,2)	
L1D -285>	(2,2)	(197,4)	(98,5)	(285,9)	(449,2)	(7,3)	(32,1)	(337,1)	(24,1)	(-32,1)	(-9,4)	(275,1)	(465,2)	(-64,2)	(-16,1)	(94,1)	
L1D -284>	(281,31)	(250,4)	(289,4)	(249,11)	(0,4)	(284,34)	(288,34)	(340,9)	(252,6)	(97,5)	(341,4)	(6,3)	(409,2)	(197,3)	(273,5)	(280,8)	
L1D -283>	(255,17)	(283,7)	(191,3)	(275,5)	(257,2)	(0,13)	(282,4)	(96,16)	(343,3)	(384,2)	(121,1)	(304,2)	(34,1)	(353,1)	(361,2)	(330,1)	
L1D -282>	(255,3)	(5,2)	(465,2)	(272,2)	(0,26)	(1,20)	(286,2)	(282,6)	(342,5)	(304,2)	(-29,2)	(274,2)	(67,1)	(313,2)	(257,2)	(197,23)	
L1D -281>	(260,4)	(256,3)	(449,5)	(259,1)	(454,2)	(321,2)	(453,3)	(-128,12)	(304,2)	(183,7)	(275,11)	(274,7)	(268,17)	(292,6)	(290,2)	(265,6)	
L1D -280>	(-8,7)	(391,2)	(255,6)	(267,3)	(281,3)	(260,3)	(256,3)	(264,6)	(284,1)	(-128,17)	(2,1)	(252,17)	(74,1)	(197,1)	(273,1)	(-64,4)	
L1D -279>	(256,23)	(0,12)	(267,14)	(453,53)	(197,9)	(-3,6)	(-128,9)	(-32,3)	(317,1)	(274,14)	(259,2)	(257,5)	(252,3)	(103,3)	(323,2)	(255,17)	
L1D -278>	(0,80)	(-1,2)	(271,2)	(23,3)	(278,81)	(246,2)	(458,1)	(-64,2)	(103,4)	(399,1)	(274,1)	(-26,1)	(16,2)	(111,1)	(100,1)	(-15,1)	
L1D -277>	(241,2)	(-5,2)	(368,13)	(326,4)	(360,3)	(365,3)	(275,4)	(0,9)	(-15,3)	(1,5)	(242,2)	(255,2)	(329,1)	(259,4)	(277,46)	(352,5)	
L1D -276>	(-64,12)	(104,6)	(485,2)	(276,98)	(360,3)	(89,23)	(281,2)	(2,2)	(311,6)	(328,2)	(310,2)	(361,10)	(256,4)	(-6,1)	(272,1)	(326,1)	
L1D -275>	(350,7)	(343,12)	(274,8)	(255,1)	(310,5)	(317,3)	(0,50)	(361,44)	(326,27)	(368,8)	(330,15)	(459,19)	(-64,11)	(315,3)	(318,3)	(463,3)	
L1D -274>	(276,9)	(326,11)	(-128,3)	(0,19)	(-9,4)	(309,11)	(-2,3)	(459,7)	(249,4)	(1,7)	(334,3)	(250,2)	(-13,2)	(-5,1)	(462,1)	(-64,3)	
L1D -273>	(1,32)	(274,2)	(241,3)	(273,2)	(59,2)	(465,4)	(256,3)	(266,2)	(290,7)	(259,5)	(79,1)	(249,1)	(-8,2)	(475,1)	(0,3)	(272,5)	
L1D -272>	(0,34)	(256,3)	(268,10)	(1,57)	(16,3)	(-64,16)	(272,10)	(252,3)	(-128,12)	(292,3)	(264,28)	(260,13)	(8,1)	(276,3)	(-26,2)	(291,2)	
L1D -271>	(1,33)	(-128,27)	(263,3)	(-11,1)	(248,5)	(270,2)	(0,15)	(428,4)	(252,2)	(-26,2)	(437,13)	(-4,2)	(271,8)	(-64,15)	(264,2)	(272,2)	
L1D -270>	(0,30)	(253,1)	(-22,0)	(-64,4)	(275,0)	(-4,1)	(1,68)	(-128,1)	(16,3)	(270,1)	(249,0)	(-5,0)	(2,1)	(-3,0)	(271,0)	(462,0)	
L1D -269>	(384,7)	(5,3)	(260,4)	(268,2)	(466,2)	(269,2)	(468,3)	(-4,21)	(448,3)	(72,3)	(-16,5)	(82,6)	(348,1)	(7,1)	(369,1)	(0,1)	
L1D -268>	(465,17)	(281,15)	(451,10)	(268,16)	(282,5)	(288,16)	(256,65)	(273,11)	(248,4)	(249,5)	(264,4)	(316,5)	(332,17)	(341,1)	(250,4)	(0,4)	
L1D -267>	(95,61)	(106,4)	(259,1)	(288,2)	(264,2)	(1,22)	(307,2)	(272,2)	(0,20)	(80,15)	(315,9)	(444,12)	(89,5)	(-64,30)	(112,6)	(92,2)	
L1D -266>	(97,1)	(39,1)	(332,0)	(266,1)	(248,0)	(267,0)	(1,5)	(250,0)	(256,0)	(304,0)	(-4,1)	(276,0)	(255,117)	(293,0)	(268,0)	(288,0)	
L1D -265>	(304,8)	(290,6)	(268,45)	(7,4)	(276,9)	(265,12)	(259,2)	(264,85)	(-16,10)	(275,12)	(288,15)	(256,9)	(273,3)	(292,3)	(465,16)	(-3,3)	
L1D -264>	(284,9)	(-16,3)	(465,6)	(260,7)	(-128,4)	(264,30)	(276,1)	(296,4)	(5,10)	(2,3)	(-64,4)	(256,19)	(299,3)	(-2,6)	(252,67)	(250,4)	
L1D -263>	(245,5)	(437,19)	(-128,26)	(307,3)	(-16,3)	(38,2)	(264,2)	(39,2)	(-64,2)	(104,1)	(201,1)	(197,2)	(0,12)	(420,1)	(10,1)	(137,1)	
L1D -262>	(-64,2)	(-3,93)	(3,49)	(2,3)	(105,3)	(197,3)	(79,2)	(262,2)	(8,3)	(0,11)	(55,1)	(377,4)	(5,4)	(183,5)	(-8,2)	(261,2)	
L1D -261>	(243,4)	(270,9)	(122,26)	(2,33)	(1,10)	(330,1)	(261,42)	(183,41)	(197,2)	(8,11)	(0,15)	(377,8)	(260,2)	(465,4)	(115,9)	(5,6)	
L1D -260>	(465,7)	(-5,66)	(-145,4)	(112,7)	(-64,1)	(273,5)	(448,13)	(340,8)	(264,3)	(260,103)	(8,25)	(-1,3)	(122,8)	(319,18)	(268,7)	(121,14)	
L1D -259>	(336,1)	(3,1)	(416,1)	(348,4)	(112,3)	(265,107)	(326,1)	(458,1)	(120,1)	(2,0)	(113,0)	(121,3)	(105,0)	(0,0)	(122,0)	(-5,0)	
L1D -258>	(0,18)	(276,15)	(258,15)	(465,6)	(95,4)	(264,6)	(267,14)	(416,8)	(76,1)	(1,4)	(121,7)	(384,2)	(112,4)	(251,2)	(293,6)	(268,10)	
L1D -257>	(264,29)	(250,18)	(291,2)	(120,5)	(284,5)	(465,18)	(0,84)	(258,30)	(282,5)	(275,30)	(266,5)	(304,7)	(67,5)	(260,29)	(268,88)	(259,6)	
L1D -256>	(465,9)	(297,4)	(256,32)	(121,4)	(259,9)	(289,6)	(0,24)	(304,7)	(260,7)	(288,5)	(252,9)	(257,4)	(283,13)	(268,59)	(282,6)	(110,1)	
L1D -255>	(0,12)	(255,34)	(183,2)	(73,2)	(8,2)	(-8,17)	(-64,3)	(219,4)	(191,2)	(-55,4)	(16,19)	(-86,2)	(197,4)	(128,7)	(111,2)	(110,1)	
L1D -254>	(263,5)	(315,1)	(72,2)	(2,2)	(-7,4)	(254,17)	(197,4)	(7,2)	(-8,5)	(466,4)	(1,6)	(8,10)	(259,33)	(81,2)	(-16,2)	(67,2)	
L1D -253>	(262,6)	(357,10)	(320,2)	(114,3)	(-64,4)	(0,12)	(452,10)	(257,4)	(261,2)	(264,2)	(256,3)	(-8,2)	(333,4)	(304,3)	(197,2)	(252,1)	
L1D -252>	(7,115)	(2,1)	(341,29)	(328,3)	(332,12)	(340,18)	(6,62)	(252,17)	(336,4)	(451,3)	(0,3)	(465,3)	(325,10)	(1,15)	(349,11)	(460,16)	
L1D -251>	(113,4)	(5,126)	(264,1)	(322,1)	(-5,1)	(8,0)	(256,0)	(273,0)	(-7,0)	(-1,25)	(118,0)	(112,0)	(282,0)	(448,1)	(0,5)	(-8,0)	
L1D -250>	(101,33)	(103,33)	(121,94)	(90,25)	(250,114)	(94,1)	(117,13)	(91,12)	(104,55)	(114,17)	(102,21)	(97,4)	(265,27)	(264,17)	(99,4)	(110,9)	
L1D -249>	(264,26)	(357,8)	(256,9)	(273,10)	(272,5)	(-64,1)	(290,2)	(457,3)	(265,4)	(249,6)	(250,4)	(268,4)	(465,5)	(288,4)	(257,3)	(260,4)	
L1D -248>	(264,5)	(-11,6)	(252,19)	(447,54)	(236,4)	(256,3)	(284,4)	(268,11)	(281,21)	(-8,4)	(349,1)	(446,10)	(305,2)	(240,3)	(248,7)	(292,3)	
L1D -247>	(326,2)	(197,5)	(337,6)	(16,15)	(-8,2)	(-64,1)	(-3,1)	(247,1)	(8,51)	(0,15)	(276,1)	(346,4)	(373,4)	(246,1)	(357,1)	(364,1)	
L1D -246>	(-6,2)	(246,8)	(274,2)	(389,2)	(40,8)	(-64,18)	(-7,4)	(10,2)	(453,1)	(16,2)	(8,5)	(396,4)	(-9,3)	(0,6)	(-76,8)	(52,1)	
L1D -245>	(0,15)	(-5,2)	(245,6)	(459,2)	(-15,4)	(56,6)	(93,2)	(-64,8)	(246,2)	(24,5)	(438,7)	(285,1)	(146,1)	(249,1)	(260,2)	(341,1)	
L1D -244>	(244,11)	(23,1)	(-64,12)	(4,1)	(10,4)	(263,1)	(55,2)	(243,2)	(8,1)	(-6,1)	(357,1)	(-48,1)	(-5,2)	(56,2)	(-10,2)	(71,2)	
L1D -243>	(0,6)	(104,3)	(97,3)	(243,6)	(6,7)	(345,7)	(324,2)	(368,2)	(361,6)	(322,1)	(350,2)	(329,1)	(330,2)	(113,3)	(-3,1)	(-64,3)	
L1D -242>	(1,3)	(210,1)	(2,1)	(-64,2)	(55,1)	(435,24)	(431,4)	(317,1)	(361,1)	(330,1)	(261,1)	(0,9)	(-72,1)	(326,1)	(318,1)	(242,2)	
L1D -241>	(1,2)	(4,3)	(246,5)	(274,11)	(-9,29)	(-64,4)	(10,8)	(209,4)	(434,2)	(448,2)	(79,7)	(442,6)	(-14,1)	(0,5)	(385,1)	(387,1)	
L1D -240>	(79,1)	(-64,34)	(64,114)	(-128,2)	(-55,1)	(447,1)	(56,4)	(-60,1)	(240,1)	(256,1)	(273,1)	(248,2)	(269,1)	(276,1)	(1,0)	(1,0)	
L1D -239>	(0,9)	(79,6)	(186,9)	(1,9)	(316,2)	(-64,19)	(315,2)	(70,2)	(-9,3)	(357,2)	(56,2)	(10,2)	(-7,3)	(238,2)	(-128,1)	(428,3)	
L1D -238>	(-64,10)	(266,7)	(185,3)	(237,3)	(446,3)	(238,13)	(-12,1)	(0,3)	(404,5)	(398,3)	(403,1)	(275,2)	(-9,7)	(174,1)	(450,4)	(357,2)	
L1D -237>	(56,2)	(309,7)	(251,9)	(-17,2)	(303,2)	(237,5)	(283,1)	(460,1)	(55,3)	(377,2)	(404,1)	(13,4)	(229,2)	(435,1)	(-64,3)	(0,2)	
L1D -236>	(8,2)	(-64,119)	(437,2)	(224,2)	(248,1)	(2,1)	(426,1)	(4,1)	(-144,4)	(427,4)	(232,2)	(236,7)	(9,1)	(264,1)	(423,1)	(0,2)	
L1D -235>	(-64,2)	(-1,3)	(395,11)	(284,2)	(68,4)	(315,2)	(444,2)	(-16,1)	(272,2)	(307,1)	(311,3)	(430,1)	(338,3)	(33,1)	(32,1)	(52,1)	
L1D -234>	(47,1)	(8,1)	(32,2)	(-8,1)	(-64,3)	(-2,4)	(13,2)	(0,3)	(233,1)	(-66,1)	(253,1)	(261,1)	(1,0)	(1,0)	(1,0)	(1,0)	
L1D -233>	(-1,1)	(236,2)	(291,1)	(433,1)	(233,3)	(68,1)	(442,1)	(0,2)	(232,2)	(272,1)	(8,2)	(-64,2)	(349,1)	(316,1)	(1,1)	(1,0)	
L1D -232>	(-64,9)	(-15,2)	(5,5)	(292,16)	(315,7)	(232,13)	(300,5)	(220,5)	(429,5)	(271,2)	(248,2)	(400,2)	(191,1)	(224,3)	(431,1)	(1,26)	
L1D -231>	(231,1)	(191,1)	(3,3)	(223,1)	(150,1)	(79,1)	(0,1)	(-64,34)	(-10,1)	(395,89)	(284,13)	(1,1)	(-57,0)	(226,2)	(78,2)	(227,1)	
L1D -230>	(-64,2)	(301,1)	(4,2)	(230,2)	(357,1)	(223,2)	(2,1)	(78,8)	(0,2)	(79,3)	(64,1)	(-128,6)	(197,1)	(186,1)	(-1,1)	(1,0)	
L1D -229>	(-64,7)	(8,2)	(243,2)	(301,2)	(229,5)	(442,2)	(217,2)	(101,1)	(419,19)	(245,1)	(415,1)	(42,1)	(-1,1)	(214,1)	(225,1)	(0,2)	
L1D -228>	(9,8)	(8,4)	(-64,1)	(415,3)	(296,13)	(228,5)	(419,4)	(3,3)	(292,8)	(315,9)	(2,4)	(300,7)	(236,7)	(1,5)	(429,14)	(227,6)	
L1D -227>	(99,1)	(7,1)	(-1,5)	(224,1)	(8,2)	(227,26)	(-64,4)	(68,15)	(2,3)	(-248,1)	(180,2)	(82,1)	(-242,1)	(357,7)	(-73,2)	(21,1)	
L1D -226>	(0,44)	(98,2)	(1,2)	(21,12)	(127,5)	(310,5)	(-55,9)	(-128,2)	(226,19)	(188,2)	(222,2)	(-60,6)	(24,19)	(-8,9)	(-64,2)	(-243,3)	
L1D -225>	(1,29)	(0,10)	(24,16)	(28,2)	(232,2)	(218,5)	(-2,9)	(225,7)	(236,6)	(-64,14)	(227,6)	(37,8)	(21,3)	(38,3)	(-257,3)	(180,1)	
L1D -224>	(0,10)	(211,8)	(-64,71)	(-222,3)	(224,12)	(66,4)	(208,4)	(1,3)	(226,3)	(236,3)	(232,3)	(-88,2)	(-5,1)	(251,1)	(-248,26)	(199,10)	
L1D -223>	(71,4)	(-7,1)	(223,5)	(64,1)	(0,5)	(227,19)	(2,2)	(-64,23)	(302,1)	(192,2)	(387,20)	(276,4)	(67,2)	(79,2)	(1,1)	(-249,1)	
L1D -222>	(226,9)	(2,2)	(446,4)	(411,3)	(51,2)	(117,2)	(1,4)	(-257,4)	(-183,2)	(82,2)	(57,2)	(49,6)	(17,2)	(33,5)	(208,11)	(41,1)	
L1D -221>	(-24,5)	(-64,2)	(1,3)	(69,1)	(78,2)	(-8,1)	(0,7)	(-17,1)	(310,2)	(-175,12)	(16,1)	(221,1)	(32,5)	(79,2)	(197,1)	(67,1)	
L1D -220>	(-9,6)	(2,10)	(24,7)	(0,31)	(-1,5)	(-260,3)	(208,4)	(8,3)	(-252,1)	(228,3)	(209,2)	(7,2)	(-175,5)	(-64,24)	(-179,3)	(-258,2)	
L1D -219>	(-9,6)	(-258,3)	(219,1)	(72,2)	(232,2)	(211,3)	(-267,3)	(255,6)	(2,16)	(7,5)	(0,3)	(24,3)	(-276,4)	(395,4)	(-64,7)	(-126,3)	
L1D -218>	(208,3)	(193,3)	(400,4)	(0,38)	(-2,7)	(-9,2)	(209,4)	(51,13)	(1,12)	(21,5)	(395,2)	(-261,1)	(217,6)	(-36,2)	(8,2)	(203,8)	
L1D -217>	(0,5)	(80,4)	(210,2)	(16,2)	(-88,3)	(60,2)	(217,7)	(-2,6)	(-184,2)	(-248,37)	(79,2)	(232,3)	(209,3)	(1,1)	(208,1)	(4,1)	
L1D -216>	(43,21)	(-64,4)	(4,4)	(0,22)	(407,40)	(195,5)	(27,22)	(204,56)	(193,5)	(-128,3)	(-249,3)	(39,9)	(-256,6)	(384,4)	(191,27)	(203,19)	
L1D -215>	(403,7)	(0,45)	(98,63)	(-64,4)	(-257,14)	(255,14)	(219,6)	(379,24)	(268,5)	(191,4)	(-118,3)	(-192,7)	(-128,4)	(407,6)	(1,1)	(2,2)	
L1D -214>	(0,62)	(207,1)	(8,12)	(214,2)	(-258,4)	(406,7)	(410,2)	(409,4)	(-64,8)	(182,3)	(-266,2)	(-194,2)	(2,4)	(1,8)	(202,4)	(-128,4)	
L1D -213>	(0,38)	(-249,8)	(-251,2)	(392,4)	(-259,4)	(-64,15)	(15,2)	(64,3)	(-252,25)	(213,9)	(41,1)	(-194,2)	(2,8)	(86,1)	(85,4)	(93,1)	
L1D -212>	(-248,2)	(0,18)	(212,107)	(-7,2)	(310,8)	(-238,4)	(-197,2)	(80,17)	(38,4)	(2,2)	(41,2)	(101,3)	(-254,13)	(16,3)	(191,14)	(1,3)	
L1D -211>	(-259,6)	(211,7)	(83,14)	(-128,1)	(-249,2)	(-251,3)	(195,3)	(-2,2)	(0,10)	(168,2)	(-64,26)	(1,6)	(-198,6)	(-242,2)	(-175,4)	(401,2)	
L1D -210>	(8,9)	(0,10)	(128,3)	(210,11)	(-2,7)	(82,10)	(-64,5)	(1,4)	(209,5)	(310,2)	(311,3)	(-183,3)	(-9,2)	(-257,19)	(2,2)	(-252,1)	
L1D -209>	(-139,4)	(-259,2)	(-256,17)	(79,3)	(203,2)	(115,3)	(-200,4)	(9,3)	(179,2)	(-9,8)	(83,7)	(8,5)	(81,2)	(0,6)	(-64,2)	(-260,1)	
L1D -208>	(80,15)	(208,74)	(-128,13)	(5,3)	(404,3)	(-64,20)	(0,6)	(-252,1)	(-16,12)	(-7,4)	(8,2)	(35,4)	(-4,4)	(-264,21)	(-200,30)	(9,2)	
L1D -207>	(-258,7)	(0,38)	(-183,1)	(-247,9)	(-232,21)	(-265,3)	(-64,100)	(207,13)	(404,6)	(168,5)	(364,19)	(-21,6)	(-200,16)	(5,26)	(-7,9)	(7,5)	
L1D -206>	(-128,2)	(0,9)	(185,3)	(189,2)	(182,3)	(206,14)	(402,2)	(80,3)	(-7,2)	(-8,1)	(250,1)	(404,91)	(398,34)	(-64,11)	(-21,5)	(276,12)	
L1D -205>	(0,11)	(-64,9)	(246,4)	(-248,3)	(205,15)	(8,5)	(377,5)	(384,13)	(185,18)	(233,2)	(-24,4)	(204,2)	(402,6)	(393,2)	(213,3)	(404,121)	
L1D -204>	(15,11)	(-249,16)	(27,21)	(43,17)	(-276,4)	(209,26)	(-4,106)	(1,2)	(-217,2)	(14,2)	(0,96)	(60,2)	(204,90)	(303,2)	(207,6)	(208,21)	
L1D -203>	(192,9)	(-249,7)	(15,4)	(63,9)	(69,9)	(-64,72)	(-205,19)	(-50,3)	(72,4)	(-248,2)	(238,2)	(198,2)	(0,17)	(203,11)	(-128,5)	(255,5)	
L1D -202>	(2,11)	(-265,2)	(1,5)	(209,4)	(15,3)	(-1,5)	(208,75)	(-251,2)	(202,9)	(192,2)	(-228,6)	(213,12)	(-206,39)	(-24,3)	(0,9)	(83,3)	
L1D -201>	(-194,7)	(-1,11)	(63,10)	(69,10)	(208,13)	(211,3)	(209,10)	(0,26)	(-5,4)	(197,13)	(191,6)	(-8,9)	(-24,6)	(210,1)	(313,3)	(-264,36)	
L1D -200>	(-1,10)	(-64,30)	(200,23)	(-132,4)	(115,4)	(203,4)	(-18,6)	(-9,15)	(8,7)	(-12,1)	(208,24)	(38,7)	(206,47)	(0,12)	(209,38)	(178,4)	
L1D -199>	(2,123)	(202,14)	(-64,33)	(183,2)	(356,7)	(9,8)	(0,10)	(199,8)	(-28,4)	(198,8)	(-21,2)	(195,3)	(-260,5)	(68,1)	(23,10)	(-2,2)	
L1D -198>	(201,4)	(1,5)	(-64,21)	(0,10)	(4,4)	(-128,14)	(-9,8)	(197,6)	(183,4)	(22,1)	(409,8)	(267,3)	(-3,7)	(-21,2)	(-8,4)	(-248,10)	
L1D -197>	(202,16)	(2,12)	(197,53)	(0,125)	(1,33)	(300,3)	(377,15)	(78,4)	(5,12)	(21,7)	(183,12)	(185,5)	(-64,7)	(196,1)	(229,3)	(393,3)	
L1D -196>	(0,31)	(78,1)	(-24,10)	(213,7)	(-206,12)	(-182,4)	(64,4)	(-228,10)	(1,3)	(311,4)	(-213,12)	(209,4)	(196,86)	(20,9)	(49,19)	(-197,28)	
L1D -195>	(274,7)	(238,8)	(190,7)	(-64,8)	(176,9)	(195,34)	(-214,26)	(14,9)	(240,4)	(174,5)	(177,1)	(-1,9)	(213,6)	(19,5)	(-228,3)	(194,6)	
L1D -194>	(-64,29)	(66,6)	(220,4)	(-184,9)	(-128,15)	(194,25)	(-273,1)	(-60,7)	(209,6)	(-275,19)	(155,6)	(317,3)	(51,6)	(83,16)	(18,11)	(131,5)	
L1D -193>	(-92,4)	(1,80)	(193,36)	(155,14)	(8,63)	(317,15)	(0,7)	(-242,8)	(-34,1)	(79,4)	(16,3)	(-64,20)	(177,14)	(372,3)	(-289,37)	(3,3)	
L1D -192>	(-9,8)	(98,4)	(-175,20)	(154,58)	(192,61)	(-279,10)	(0,39)	(-64,1)	(177,5)	(1,12)	(179,3)	(155,19)	(-257,5)	(219,2)	(208,3)	(-242,16)	
L1D -191>	(175,7)	(-64,30)	(153,82)	(-224,4)	(191,26)	(154,25)	(9,6)	(0,12)	(15,1)	(-289,3)	(177,7)	(6,6)	(-1,10)	(52,6)	(44,12)	(-216,11)	
L1D -190>	(152,127)	(153,27)	(-64,50)	(5,9)	(9,7)	(7,6)	(-277,1)	(-228,4)	(-232,11)	(-9,5)	(197,36)	(-289,22)	(-2,8)	(0,18)	(190,6)	(151,8)	
L1D -189>	(152,56)	(-172,3)	(151,66)	(293,2)	(-225,4)	(157,4)	(1,12)	(36,2)	(-64,13)	(0,4)	(-175,27)	(13,4)	(189,1)	(204,5)	(-1,3)	(-26,3)	
L1D -188>	(-197,6)	(151,96)	(150,70)	(187,10)	(-205,47)	(38,6)	(1,24)	(172,9)	(190,17)	(0,35)	(-63,1)	(-32,8)	(2,26)	(188,17)	(44,124)	(5,16)	
L1D -187>	(-1,62)	(2,29)	(150,54)	(-64,34)	(12,1)	(-158,22)	(11,8)	(-206,68)	(187,37)	(0,27)	(-150,10)	(266,8)	(255,20)	(191,10)	(219,12)	(183,5)	
L1D -186>	(213,5)	(-4,4)	(186,25)	(5,9)	(-279,3)	(148,31)	(8,1)	(1,6)	(7,3)	(-206,8)	(184,2)	(-64,20)	(197,4)	(2,64)	(185,13)	(47,2)	
L1D -185>	(-279,10)	(147,29)	(1,44)	(185,37)	(-5,32)	(153,11)	(2,39)	(-8,94)	(5,12)	(148,1)	(-4,9)	(-139,5)	(-64,14)	(-72,12)	(7,34)	(-158,6)	
L1D -184>	(8,23)	(183,17)	(-5,55)	(2,102)	(-64,61)	(184,29)	(-205,21)	(-216,31)	(7,35)	(1,25)	(-224,12)	(146,9)	(177,1)	(5,44)	(6,18)	(-4,8)	
L1D -183>	(6,15)	(-1,5)	(-5,38)	(-289,110)	(183,50)	(146,2)	(-276,10)	(1,13)	(-18,8)	(-282,4)	(0,7)	(-273,4)	(5,28)	(2,92)	(-4,10)	(7,46)	
L1D -182>	(-31,2)	(163,113)	(-9,3)	(2,14)	(7,5)	(1,17)	(-5,18)	(182,5)	(6,9)	(-19,19)	(-64,4)	(-297,1)	(5,11)	(-15,13)	(8,1)	(-2,1)	
L1D -181>	(-5,29)	(-277,2)	(-8,2)	(-272,2)	(6,10)	(5,4)	(1,15)	(0,13)	(-64,124)	(175,4)	(181,7)	(2,34)	(-4,2)	(-284,6)	(7,13)	(-264,2)	
L1D -180>	(-289,4)	(7,22)	(-5,98)	(2,61)	(180,41)	(6,8)	(-1,1)	(1,42)	(-4,3)	(175,6)	(0,8)	(-284,23)	(-192,9)	(-197,60)	(-21,4)	(5,24)	
L1D -179>	(-5,81)	(7,24)	(179,44)	(1,48)	(51,17)	(-64,33)	(-206,2)	(163,7)	(174,6)	(177,2)	(2,69)	(-4,15)	(165,1)	(175,10)	(56,1)	(5,31)	
L1D -178>	(-4,7)	(-5,30)	(2,22)	(128,2)	(-30,2)	(163,88)	(185,1)	(-72,1)	(50,1)	(1,16)	(7,1)	(175,7)	(6,3)	(178,16)	(5,6)	(-186,1)	
L1D -177>	(2,55)	(-1,9)	(-5,125)	(1,65)	(0,3)	(-64,45)	(49,7)	(7,14)	(175,21)	(-39,3)	(174,1)	(177,44)	(163,14)	(162,5)	(5,14)	(173,12)	
L1D -176>	(112,101)	(388,11)	(59,5)	(61,4)	(175,102)	(45,1)	(174,93)	(53,3)	(176,11)	(380,53)	(-5,38)	(177,60)	(60,12)	(1,23)	(-2,18)	(300,3)	
L1D -175>	(5,14)	(-1,96)	(-5,127)	(1,66)	(156,1)	(175,57)	(-64,83)	(21,1)	(-78,7)	(7,9)	(31,1)	(-103,1)	(2,74)	(-4,12)	(-19,3)	(6,12)	
L1D -174>	(163,32)	(-279,14)	(-5,81)	(175,27)	(174,48)	(-287,13)	(-263,5)	(178,28)	(1,44)	(2,38)	(7,8)	(164,1)	(5,8)	(177,17)	(-4,8)	(6,5)	
L1D -173>	(-5,122)	(173,89)	(175,6)	(174,26)	(1,75)	(2,75)	(316,13)	(6,13)	(7,29)	(5,52)	(-1,3)	(-64,43)	(-4,16)	(177,7)	(-195,7)	(176,1)	
L1D -172>	(173,1)	(5,36)	(2,35)	(48,1)	(0,4)	(-5,98)	(-64,52)	(1,49)	(171,2)	(-4,9)	(172,42)	(-1,2)	(6,13)	(7,26)	(3,6)	(190,1)	
L1D -171>	(173,8)	(51,13)	(171,83)	(-5,100)	(6,46)	(-64,6)	(-1,6)	(5,52)	(1,117)	(7,26)	(170,45)	(172,1)	(10,3)	(-4,17)	(2,70)	(-275,7)	
L1D -170>	(170,51)	(-4,14)	(171,5)	(61,2)	(-5,118)	(180,1)	(6,22)	(-1,14)	(169,36)	(1,123)	(10,1)	(173,3)	(2,89)	(5,33)	(-64,8)	(7,1)	
L1D -169>	(-5,74)	(170,6)	(187,1)	(-1,4)	(169,24)	(1,93)	(-22,3)	(2,29)	(6,2)	(175,4)	(171,4)	(-30,12)	(5,13)	(7,2)	(-4,5)	(-6,3)	
L1D -168>	(176,1)	(-5,57)	(-7,1)	(27,1)	(168,25)	(9,1)	(1,72)	(169,5)	(6,4)	(0,1)	(-6,1)	(188,1)	(2,23)	(-1,1)	(-4,3)	(-64,6)	
L1D -167>	(175,3)	(-278,2)	(0,2)	(1,70)	(-5,55)	(169,1)	(-291,3)	(-64,16)	(167,24)	(-4,2)	(168,1)	(-34,1)	(2,9)	(-45,1)	(10,2)	(-18,1)	
L1D -166>	(-43,5)	(-5,68)	(-287,3)	(1,99)	(-128,1)	(-19,1)	(166,21)	(2,23)	(-45,1)	(-1,2)	(-51,7)	(167,4)	(-4,4)	(-47,2)	(-46,1)	(-35,8)	
L1D -165>	(-5,81)	(166,4)	(-9,3)	(1,125)	(64,3)	(10,12)	(2,39)	(165,36)	(-293,1)	(167,5)	(-45,1)	(-4,6)	(-1,1)	(72,8)	(56,1)	(-3,1)	
L1D -164>	(-16,2)	(165,6)	(-5,65)	(-215,7)	(-297,1)	(1,69)	(2,65)	(164,117)	(-231,37)	(184,1)	(-14,2)	(-12,11)	(-6,6)	(21,1)	(10,2)	(-4,68)	
L1D -163>	(191,24)	(192,10)	(187,63)	(163,49)	(-1,7)	(186,36)	(164,1)	(188,10)	(67,13)	(190,21)	(189,16)	(-197,4)	(193,5)	(185,6)	(1,76)	(64,10)	
L1D -162>	(186,17)	(191,17)	(56,10)	(190,19)	(59,22)	(189,16)	(184,8)	(185,12)	(-275,5)	(150,4)	(74,8)	(188,13)	(182,9)	(0,20)	(1,86)	(163,1)	
L1D -161>	(160,1)	(128,1)	(161,1)	(175,1)	(1,82)	(162,8)	(-15,2)	(174,1)	(-14,1)	(2,1)	(237,1)	(163,4)	(-128,1)	(181,3)	(21,4)	(-47,1)	
L1D -160>	(-64,7)	(-235,2)	(7,5)	(2,5)	(121,3)	(160,5)	(9,6)	(128,4)	(0,6)	(175,1)	(1,80)	(24,2)	(21,4)	(-16,3)	(181,2)	(-46,1)	
L1D -159>	(168,33)	(24,2)	(-3,3)	(10,2)	(157,2)	(158,48)	(1,100)	(21,5)	(-10,2)	(161,3)	(-35,6)	(2,2)	(7,3)	(23,2)	(160,5)	(-17,1)	
L1D -158>	(-15,0)	(-3,7)	(27,1)	(1,64)	(332,1)	(3,2)	(2,2)	(0,7)	(7,1)	(21,4)	(-1,2)	(-4,1)	(174,1)	(-18,1)	(-2,1)	(-303,1)	
L1D -157>	(21,6)	(27,3)	(-9,1)	(1,119)	(-10,1)	(-128,6)	(8,1)	(2,1)	(13,2)	(10,4)	(-2,1)	(64,1)	(-1,3)	(24,1)	(7,4)	(-4,0)	
L1D -156>	(-128,6)	(16,6)	(7,6)	(-3,1)	(-64,11)	(-6,3)	(6,3)	(10,68)	(64,13)	(28,3)	(9,6)	(203,2)	(1,114)	(177,2)	(24,2)	(-1,15)	
L1D -155>	(1,19)	(10,113)	(-305,1)	(-7,12)	(-1,5)	(44,3)	(9,6)	(0,2)	(5,74)	(3,3)	(151,2)	(7,13)	(-128,10)	(2,2)	(157,13)	(135,2)	
L1D -154>	(94,47)	(93,40)	(153,45)	(10,120)	(140,1)	(156,8)	(7,19)	(134,2)	(-7,3)	(-1,14)	(151,4)	(136,2)	(-3,5)	(2,8)	(24,3)	(92,9)	
L1D -153>	(9,3)	(93,38)	(18,2)	(163,116)	(94,1)	(10,67)	(-4,3)	(-139,9)	(0,6)	(7,4)	(153,2)	(155,7)	(24,8)	(91,2)	(2,5)	(4,1)	
L1D -152>	(92,28)	(10,103)	(7,11)	(2,23)	(91,1)	(0,8)	(151,3)	(-35,6)	(154,10)	(93,25)	(-64,3)	(-1,3)	(24,15)	(-3,23)	(-292,13)	(-13,6)	
L1D -151>	(91,9)	(-1,7)	(-309,7)	(2,40)	(148,10)	(152,3)	(0,9)	(-8,18)	(-19,9)	(145,2)	(4,54)	(-11,5)	(54,2)	(-132,3)	(24,29)	(140,12)	
L1D -150>	(90,15)	(1,11)	(4,25)	(2,4)	(-6,56)	(149,84)	(-1,16)	(16,20)	(-19,8)	(324,5)	(-4,21)	(7,36)	(3,12)	(-2,25)	(13,29)	(86,1)	
L1D -149>	(0,67)	(151,6)	(136,6)	(-5,7)	(-3,10)	(128,10)	(7,47)	(8,40)	(-50,6)	(-19,25)	(-10,30)	(1,12)	(14,10)	(-20,11)	(64,2)	(11,16)	
L1D -148>	(-128,85)	(147,34)	(0,19)	(3,3)	(148,29)	(56,96)	(-10,13)	(-139,12)	(169,5)	(-19,22)	(-20,8)	(-15,14)	(7,31)	(1,35)	(-3,5)	(157,1)	
L1D -147>	(64,12)	(7,63)	(146,5)	(-23,6)	(4,1)	(1,15)	(-64,21)	(-19,52)	(-2,15)	(11,19)	(-128,12)	(8,26)	(-20,30)	(132,46)	(0,32)	(148,5)	
L1D -146>	(-64,1)	(-1,3)	(145,64)	(88,2)	(104,12)	(0,1)	(103,1)	(9,2)	(140,1)	(-19,3)	(-4,1)	(135,1)	(154,1)	(99,0)	(1,6)	(-3,1)	
L1D -145>	(1,10)	(56,4)	(64,5)	(103,52)	(-27,10)	(0,64)	(8,17)	(7,14)	(4,9)	(-2,12)	(-19,77)	(-13,12)	(-20,59)	(-1,7)	(11,1)	(-16,45)	
L1D -144>	(-64,18)	(102,40)	(-9,41)	(144,13)	(-19,78)	(67,4)	(9,1)	(6,5)	(0,51)	(-16,26)	(1,43)	(-63,22)	(143,25)	(104,10)	(-20,80)	(177,5)	
L1D -143>	(-1,10)	(-16,18)	(-20,82)	(142,1)	(145,4)	(143,12)	(-19,80)	(-61,31)	(0,76)	(144,8)	(24,4)	(8,54)	(147,3)	(-5,13)	(5,6)	(132,10)	
L1D -142>	(19,4)	(100,29)	(136,104)	(0,27)	(-19,79)	(144,5)	(-7,7)	(-1,27)	(-20,86)	(137,38)	(-5,6)	(7,40)	(140,1)	(-16,45)	(98,13)	(141,7)	
L1D -141>	(2,38)	(-128,9)	(136,25)	(-1,12)	(99,9)	(-16,52)	(16,8)	(0,59)	(-19,75)	(8,19)	(139,45)	(128,2)	(-20,84)	(137,17)	(-8,22)	(134,11)	
L1D -140>	(133,13)	(134,16)	(2,45)	(135,11)	(-16,55)	(-10,35)	(137,40)	(0,60)	(-19,84)	(-20,76)	(11,90)	(149,1)	(-22,7)	(-64,28)	(8,76)	(-17,74)	
L1D -139>	(-19,10)	(-10,11)	(8,10)	(-128,14)	(-4,6)	(2,5)	(-1,117)	(-15,21)	(-5,10)	(154,1)	(10,4)	(-16,12)	(133,7)	(1,12)	(4,5)	(-20,10)	
L1D -138>	(137,50)	(135,23)	(-1,33)	(5,9)	(139,70)	(134,52)	(2,25)	(140,95)	(152,1)	(-59,11)	(142,14)	(138,39)	(141,33)	(136,67)	(-19,32)	(143,32)	
L1D -137>	(138,62)	(2,74)	(4,8)	(1,11)	(-19,85)	(134,1)	(-16,27)	(-2,8)	(-20,40)	(137,23)	(133,25)	(-3,7)	(0,19)	(9,13)	(8,10)	(139,13)	
L1D -136>	(2,16)	(136,13)	(-16,13)	(1,13)	(153,1)	(-20,23)	(79,1)	(134,7)	(16,109)	(-19,14)	(137,1)	(15,1)	(144,30)	(4,10)	(0,3)	(44,18)	
L1D -135>	(15,10)	(14,4)	(2,106)	(134,11)	(-1,13)	(135,31)	(0,36)	(-19,85)	(1,1)	(-3,6)	(-20,88)	(133,29)	(-16,38)	(-7,8)	(137,2)	(-8,22)	
L1D -134>	(1,19)	(123,37)	(-19,81)	(2,47)	(-1,67)	(92,75)	(-20,119)	(111,44)	(130,33)	(131,32)	(128,35)	(134,2)	(14,31)	(133,103)	(132,61)	(122,19)	
L1D -133>	(-16,2)	(91,3)	(132,76)	(133,9)	(130,88)	(0,3)	(-8,14)	(2,3)	(13,8)	(1,25)	(-1,1)	(8,11)	(111,1)	(-19,3)	(-20,5)	(51,2)	
L1D -132>	(133,7)	(146,1)	(19,1)	(-2,1)	(2,2)	(-19,32)	(132,73)	(72,1)	(0,6)	(118,1)	(130,12)	(-20,22)	(-3,3)	(-16,9)	(8,22)	(122,1)	
L1D -131>	(136,2)	(130,5)	(1,12)	(132,4)	(-20,72)	(89,8)	(129,9)	(154,1)	(146,7)	(4,5)	(2,2)	(-8,2)	(-59,1)	(-16,26)	(126,1)	(133,5)	
L1D -130>	(132,25)	(130,12)	(-10,38)	(-128,17)	(-20,65)	(-64,3)	(-16,29)	(-40,7)	(-29,3)	(125,6)	(-6,26)	(1,1)	(0,4)	(-7,2)	(-14,27)	(-63,6)	
L1D -129>	(131,3)	(0,12)	(129,71)	(127,1)	(-64,2)	(21,2)	(132,5)	(-24,2)	(72,4)	(-16,13)	(154,1)	(80,5)	(-1,5)	(98,1)	(97,2)	(9,1)	
L1D -128>	(7,72)	(-320,1)	(258,42)	(129,12)	(9,23)	(16,68)	(15,39)	(276,24)	(128,111)	(23,15)	(0,45)	(267,39)	(25,28)	(6,24)	(8,32)	(-1,26)	
L1D -127>	(-75,96)	(125,3)	(2,20)	(4,4)	(154,4)	(134,11)	(131,15)	(5,6)	(-41,3)	(0,14)	(123,1)	(64,2)	(-27,6)	(155,2)	(83,8)	(127,22)	
L1D -126>	(-60,2)	(1,8)	(84,47)	(7,3)	(124,15)	(-1,10)	(119,7)	(-27,82)	(-51,2)	(126,11)	(8,2)	(125,22)	(-8,11)	(121,1)	(120,8)	(123,12)	
L1D -125>	(83,1)	(124,4)	(43,1)	(-8,17)	(114,1)	(131,0)	(125,3)	(122,2)	(8,87)	(-42,0)	(-1,1)	(121,1)	(45,0)	(0,1)	(2,1)	(123,2)	
L1D -124>	(127,23)	(1,7)	(134,1)	(137,3)	(2,2)	(-44,3)	(122,4)	(82,17)	(-8,5)	(-59,5)	(-4,5)	(124,11)	(8,96)	(0,8)	(-1,15)	(7,2)	
L1D -123>	(123,54)	(-7,80)	(-1,30)	(1,67)	(64,5)	(124,18)	(-45,4)	(-8,9)	(-72,22)	(4,4)	(9,1)	(125,11)	(2,5)	(-71,9)	(81,34)	(-70,43)	
L1D -122>	(127,12)	(120,1)	(-8,13)	(125,27)	(124,108)	(6,51)	(-1,11)	(48,3)	(130,109)	(119,13)	(14,25)	(64,67)	(134,9)	(132,79)	(126,13)	(1,20)	
L1D -121>	(8,7)	(-8,5)	(64,96)	(79,33)	(124,9)	(120,24)	(122,5)	(0,10)	(118,12)	(133,6)	(119,22)	(121,28)	(123,19)	(-1,11)	(-16,1)	(116,4)	
L1D -120>	(0,11)	(-14,9)	(12,1)	(-15,3)	(2,2)	(8,1)	(9,1)	(-16,72)	(128,2)	(-3,1)	(5,1)	(3,1)	(-24,3)	(-23,3)	(1,2)	(-25,1)	
L1D -119>	(123,1)	(-8,11)	(1,31)	(4,3)	(64,12)	(3,15)	(8,19)	(120,21)	(0,48)	(-1,28)	(119,10)	(117,26)	(116,9)	(-4,75)	(-3,7)	(6,4)	
L1D -118>	(130,18)	(2,50)	(116,72)	(115,39)	(119,11)	(-5,5)	(-1,123)	(64,18)	(118,6)	(76,51)	(111,40)	(117,105)	(114,59)	(120,8)	(-66,1)	(103,7)	
L1D -117>	(130,18)	(84,3)	(-1,18)	(35,80)	(116,9)	(129,1)	(-55,3)	(122,2)	(0,20)	(118,6)	(8,16)	(75,19)	(115,7)	(-8,7)	(114,6)	(117,14)	
L1D -116>	(74,0)	(105,79)	(109,0)	(117,0)	(111,0)	(121,0)	(1,0)	(116,0)	(123,0)	(-4,0)	(60,0)	(-8,0)	(0,0)	(115,0)	(-1,0)	(118,0)	
L1D -115>	(64,5)	(21,7)	(-1,12)	(116,9)	(55,65)	(0,4)	(5,6)	(118,17)	(117,9)	(73,11)	(-4,3)	(130,2)	(7,12)	(8,6)	(115,4)	(-16,7)	
L1D -114>	(64,31)	(111,120)	(7,23)	(2,6)	(76,21)	(114,10)	(9,8)	(-8,4)	(1,59)	(44,40)	(11,10)	(-1,17)	(-16,100)	(8,9)	(40,16)	(-32,1)	
L1D -113>	(6,3)	(0,3)	(-2,1)	(38,2)	(64,11)	(-72,1)	(-9,5)	(-7,2)	(8,7)	(113,3)	(-83,1)	(-16,1)	(2,3)	(42,19)	(84,89)	(-1,3)	
L1D -112>	(0,6)	(9,5)	(-1,8)	(37,5)	(-9,2)	(-16,2)	(4,2)	(-168,2)	(64,70)	(-274,1)	(176,4)	(145,11)	(113,1)	(-3,1)	(109,3)	(112,5)	
L1D -111>	(102,8)	(204,4)	(-5,4)	(-1,52)	(-2,3)	(130,3)	(111,19)	(110,3)	(8,6)	(64,25)	(-8,40)	(-6,5)	(-16,4)	(9,3)	(103,5)	(0,8)	
L1D -110>	(64,2)	(-264,3)	(43,2)	(0,3)	(-8,116)	(9,5)	(27,6)	(111,26)	(-248,2)	(105,45)	(110,2)	(-4,1)	(204,3)	(36,1)	(8,24)	(2,5)	
L1D -109>	(109,6)	(0,16)	(-9,9)	(115,14)	(-6,4)	(-81,14)	(-7,4)	(-1,10)	(-14,1)	(-8,49)	(100,3)	(-4,5)	(108,7)	(8,18)	(7,3)	(-256,3)	
L1D -108>	(130,41)	(132,5)	(-8,26)	(16,12)	(-1,6)	(108,8)	(103,3)	(7,1)	(107,5)	(0,8)	(-9,5)	(115,8)	(2,6)	(-272,2)	(40,4)	(-48,27)	
L1D -107>	(-21,1)	(3,1)	(96,1)	(1,2)	(0,1)	(65,95)	(-8,0)	(24,1)	(107,1)	(2,1)	(4,0)	(99,0)	(-78,1)	(9,0)	(-92,0)	(-102,0)	
L1D -106>	(1,77)	(109,9)	(-27,1)	(12,3)	(4,1)	(61,0)	(-5,0)	(-34,0)	(55,0)	(32,0)	(2,2)	(114,0)	(105,8)	(-24,3)	(-7,0)	(-3,0)	
L1D -105>	(-24,1)	(-1,48)	(10,1)	(0,0)	(7,65)	(104,0)	(64,11)	(21,5)	(103,0)	(14,0)	(9,0)	(24,1)	(-257,2)	(-2,0)	(1,1)	(129,1)	
L1D -104>	(109,81)	(-7,4)	(64,10)	(-14,2)	(2,2)	(1,1)	(103,0)	(9,6)	(-21,1)	(86,1)	(0,2)	(-1,5)	(21,2)	(36,0)	(18,1)	(96,1)	
L1D -103>	(-1,97)	(8,2)	(64,14)	(144,4)	(-16,7)	(0,19)	(103,11)	(102,2)	(63,21)	(145,1)	(138,1)	(101,1)	(146,4)	(99,2)	(1,1)	(129,4)	
L1D -102>	(143,25)	(-8,12)	(144,1)	(8,20)	(145,30)	(-6,72)	(-16,38)	(101,15)	(6,36)	(64,53)	(103,18)	(-1,82)	(129,8)	(9,12)	(139,9)	(0,40)	
L1D -101>	(-2,7)	(101,14)	(-16,5)	(0,26)	(64,18)	(-264,16)	(145,21)	(-1,52)	(142,11)	(8,3)	(102,29)	(-24,6)	(-56,4)	(-7,10)	(-70,1)	(141,11)	
L1D -100>	(-183,4)	(12,4)	(141,26)	(16,14)	(-21,4)	(102,13)	(253,7)	(-7,14)	(224,4)	(104,1)	(89,94)	(85,5)	(1,30)	(-9,8)	(143,9)	(145,20)	
L1D -99>	(-9,45)	(141,11)	(101,42)	(0,15)	(12,3)	(220,13)	(-32,7)	(142,8)	(-5,10)	(138,1)	(133,5)	(145,10)	(98,6)	(10,6)	(-8,2)	(-16,2)	
L1D -98>	(12,5)	(1,4)	(140,18)	(11,3)	(33,5)	(145,6)	(92,23)	(4,4)	(-32,14)	(221,25)	(-9,16)	(-2,34)	(0,22)	(100,1)	(24,2)	(141,18)	
L1D -97>	(95,47)	(-26,25)	(54,9)	(0,1)	(-1,81)	(105,7)	(98,3)	(1,24)	(140,10)	(185,3)	(138,3)	(-35,22)	(99,11)	(64,28)	(88,14)	(132,6)	
L1D -96>	(-29,3)	(-7,4)	(221,5)	(64,11)	(97,4)	(88,7)	(-263,2)	(100,9)	(222,13)	(96,4)	(98,2)	(-343,1)	(-91,6)	(1,77)	(17,42)	(146,5)	
L1D -95>	(-29,2)	(64,73)	(139,2)	(150,32)	(-17,1)	(0,12)	(99,1)	(97,7)	(-3,1)	(91,1)	(100,1)	(125,1)	(-1,3)	(9,2)	(146,1)	(4,2)	
L1D -94>	(91,6)	(92,9)	(1,39)	(154,15)	(39,2)	(152,17)	(88,7)	(93,3)	(89,64)	(153,7)	(51,33)	(121,1)	(52,23)	(50,3)	(-1,5)	(150,1)	
L1D -93>	(6,13)	(51,115)	(124,17)	(142,5)	(144,18)	(9,18)	(92,20)	(64,5)	(52,8)	(1,13)	(146,1)	(222,22)	(93,109)	(90,71)	(0,110)	(96,9)	
L1D -92>	(133,9)	(52,8)	(51,29)	(50,36)	(64,7)	(91,22)	(146,12)	(90,89)	(151,9)	(137,1)	(130,11)	(132,24)	(-1,22)	(223,6)	(93,30)	(37,2)	
L1D -91>	(67,20)	(12,6)	(150,30)	(93,9)	(49,14)	(90,16)	(-1,58)	(1,13)	(146,11)	(-118,7)	(84,10)	(64,97)	(153,20)	(102,1)	(132,10)	(-40,4)	
L1D -90>	(129,9)	(224,11)	(93,90)	(0,17)	(210,27)	(223,18)	(133,19)	(80,19)	(89,1)	(87,9)	(1,11)	(91,25)	(153,4)	(134,7)	(-18,6)	(86,6)	
L1D -89>	(4,14)	(0,5)	(9,6)	(64,3)	(42,5)	(92,1)	(146,9)	(94,7)	(133,11)	(84,21)	(80,67)	(1,6)	(91,4)	(132,4)	(10,4)	(89,1)	
L1D -88>	(1,15)	(64,72)	(130,0)	(50,0)	(133,3)	(0,10)	(69,0)	(52,0)	(86,0)	(146,0)	(123,1)	(115,1)	(89,1)	(91,2)	(83,0)	(131,0)	
L1D -87>	(224,57)	(91,1)	(145,8)	(-58,8)	(130,14)	(88,4)	(42,6)	(1,39)	(90,19)	(64,64)	(8,18)	(80,19)	(-14,8)	(82,7)	(51,10)	(148,9)	
L1D -86>	(147,1)	(64,46)	(17,83)	(225,6)	(8,54)	(6,5)	(4,10)	(-16,2)	(75,5)	(94,23)	(87,6)	(0,9)	(130,21)	(134,7)	(-1,42)	(88,12)	
L1D -85>	(42,93)	(1,21)	(-1,20)	(-224,4)	(-3,7)	(64,29)	(43,5)	(94,16)	(81,11)	(44,17)	(17,18)	(128,14)	(0,36)	(-289,1)	(129,19)	(-16,12)	
L1D -84>	(42,118)	(81,15)	(1,38)	(154,1)	(83,36)	(225,26)	(0,13)	(94,13)	(212,14)	(-1,28)	(72,12)	(43,21)	(84,20)	(158,51)	(64,14)	(146,28)	
L1D -83>	(42,92)	(78,16)	(0,23)	(209,10)	(5,73)	(196,20)	(1,35)	(43,46)	(138,80)	(31,86)	(41,6)	(82,121)	(-1,29)	(84,19)	(146,1)	(72,61)	
L1D -82>	(48,6)	(8,77)	(1,2)	(83,2)	(64,3)	(93,1)	(0,2)	(74,3)	(125,5)	(6,6)	(4,7)	(-1,16)	(126,2)	(81,2)	(61,1)	(2,10)	
L1D -81>	(124,3)	(6,2)	(125,3)	(8,4)	(90,2)	(0,2)	(64,4)	(79,4)	(92,1)	(150,2)	(72,93)	(-1,14)	(152,1)	(81,2)	(78,10)	(80,6)	
L1D -80>	(129,1)	(-1,3)	(1,2)	(126,3)	(6,11)	(64,96)	(-27,1)	(134,3)	(31,4)	(153,3)	(123,1)	(192,2)	(0,9)	(125,6)	(81,1)	(82,2)	
L1D -79>	(-248,2)	(0,2)	(78,8)	(1,3)	(64,88)	(125,3)	(151,1)	(83,3)	(124,3)	(19,1)	(81,1)	(39,2)	(31,2)	(76,5)	(111,13)	(-1,7)	
L1D -78>	(75,6)	(61,2)	(-24,2)	(76,5)	(4,6)	(-3,30)	(73,6)	(-1,82)	(42,2)	(80,3)	(0,5)	(214,2)	(121,2)	(100,2)	(36,12)	(8,7)	
L1D -77>	(129,9)	(75,3)	(68,6)	(1,19)	(78,12)	(79,19)	(0,18)	(-3,18)	(61,3)	(-1,64)	(64,17)	(130,11)	(84,6)	(77,7)	(56,12)	(82,13)	
L1D -76>	(168,2)	(129,96)	(79,2)	(77,5)	(64,7)	(89,1)	(50,2)	(75,31)	(0,22)	(73,15)	(134,17)	(74,6)	(27,2)	(117,9)	(2,4)	(-1,33)	
L1D -75>	(2,82)	(208,12)	(9,3)	(129,84)	(77,24)	(61,25)	(34,34)	(154,1)	(18,4)	(-1,26)	(0,52)	(75,54)	(1,11)	(35,19)	(3,6)	(64,78)	
L1D -74>	(69,36)	(0,33)	(83,1)	(75,107)	(73,15)	(129,82)	(64,14)	(1,14)	(-1,31)	(111,47)	(61,12)	(2,4)	(13,16)	(32,79)	(200,2)	(118,4)	
L1D -73>	(64,75)	(0,32)	(128,32)	(24,21)	(192,7)	(116,38)	(-1,80)	(1,36)	(130,28)	(135,1)	(74,11)	(76,9)	(129,114)	(9,2)	(118,39)	(21,39)	
L1D -72>	(64,95)	(0,3)	(129,15)	(94,0)	(208,1)	(117,0)	(133,0)	(30,0)	(67,0)	(154,0)	(1,1)	(-8,0)	(72,0)	(-1,0)	(2,0)	(74,0)	
L1D -71>	(129,12)	(64,20)	(132,1)	(71,5)	(1,77)	(130,69)	(61,4)	(73,9)	(0,4)	(31,1)	(76,1)	(11,4)	(-1,6)	(75,2)	(118,11)	(40,1)	
L1D -70>	(64,7)	(154,1)	(10,3)	(129,104)	(0,24)	(-1,9)	(42,1)	(-6,1)	(8,1)	(77,2)	(62,2)	(69,2)	(170,1)	(132,7)	(21,1)	(25,1)	
L1D -69>	(69,19)	(61,2)	(94,13)	(72,16)	(1,127)	(132,6)	(0,10)	(66,2)	(128,12)	(43,17)	(27,14)	(126,6)	(-19,2)	(64,50)	(-14,16)	(20,2)	
L1D -68>	(69,16)	(-13,13)	(-10,15)	(42,4)	(43,10)	(1,102)	(26,41)	(-18,28)	(61,15)	(-15,6)	(-8,25)	(-14,8)	(9,1)	(71,3)	(28,7)	(4,4)	
L1D -67>	(67,11)	(10,1)	(25,16)	(-4,3)	(42,12)	(43,14)	(1,18)	(68,2)	(0,105)	(-15,48)	(64,30)	(179,5)	(128,14)	(-248,7)	(5,3)	(66,24)	
L1D -66>	(199,10)	(6,22)	(57,12)	(64,44)	(195,1)	(68,7)	(65,39)	(73,94)	(-9,23)	(-10,40)	(67,36)	(43,52)	(0,35)	(24,66)	(51,4)	(21,68)	
L1D -65>	(64,124)	(32,1)	(-248,4)	(1,20)	(72,6)	(6,14)	(13,31)	(23,29)	(66,8)	(43,31)	(70,5)	(127,6)	(31,14)	(-7,9)	(-69,5)	(2,34)	
L1D -64>	(76,13)	(72,101)	(56,29)	(224,1)	(64,62)	(68,8)	(-64,22)	(73,10)	(1,51)	(66,3)	(248,8)	(232,17)	(74,29)	(15,3)	(0,50)	(75,14)	
L1D -63>	(64,69)	(-1,40)	(6,3)	(58,5)	(-87,6)	(43,52)	(60,8)	(15,1)	(-16,4)	(1,110)	(62,13)	(191,26)	(21,32)	(12,20)	(61,7)	(63,3)	
L1D -62>	(-70,5)	(45,1)	(64,5)	(62,89)	(61,2)	(1,9)	(-7,1)	(58,1)	(-92,1)	(48,2)	(60,1)	(198,1)	(199,1)	(43,4)	(20,6)	(-2,3)	
L1D -61>	(59,11)	(58,98)	(-1,2)	(64,31)	(50,2)	(17,3)	(-9,1)	(12,10)	(45,1)	(19,12)	(-3,1)	(60,2)	(-94,2)	(43,2)	(53,2)	(5,8)	
L1D -60>	(0,6)	(58,65)	(62,74)	(61,54)	(43,16)	(59,59)	(-94,1)	(-1,37)	(56,16)	(63,54)	(5,9)	(-2,26)	(64,54)	(68,16)	(67,13)	(18,7)	
L1D -59>	(48,22)	(65,69)	(17,45)	(112,101)	(60,22)	(42,13)	(58,33)	(-1,24)	(43,39)	(-10,17)	(-5,14)	(64,50)	(1,9)	(61,56)	(-94,1)	(-4,23)	
L1D -58>	(-1,17)	(15,17)	(47,26)	(48,6)	(58,22)	(2,14)	(16,101)	(59,28)	(64,85)	(5,8)	(56,15)	(12,11)	(-71,12)	(1,11)	(-35,17)	(-92,1)	
L1D -57>	(57,62)	(-73,11)	(46,10)	(64,55)	(47,26)	(-2,10)	(15,18)	(61,9)	(2,5)	(43,8)	(55,26)	(14,2)	(-72,75)	(52,1)	(42,12)	(44,4)	
L1D -56>	(44,2)	(65,13)	(64,126)	(66,15)	(68,1)	(46,11)	(43,15)	(56,9)	(1,20)	(112,22)	(-73,7)	(55,4)	(42,6)	(54,11)	(0,4)	(14,8)	
L1D -55>	(55,71)	(46,14)	(43,61)	(45,32)	(-4,14)	(32,41)	(44,10)	(-74,49)	(1,52)	(64,67)	(-14,6)	(380,8)	(11,1)	(13,106)	(42,42)	(-75,7)	
L1D -54>	(31,55)	(43,29)	(4,10)	(-75,20)	(42,13)	(10,8)	(64,17)	(1,57)	(39,78)	(55,5)	(41,4)	(68,1)	(60,6)	(52,6)	(54,22)	(12,34)	
L1D -53>	(51,48)	(45,5)	(10,20)	(52,1)	(53,52)	(43,27)	(60,13)	(42,64)	(62,64)	(40,3)	(56,7)	(11,41)	(1,11)	(-76,104)	(-77,12)	(64,10)	
L1D -52>	(38,2)	(43,8)	(51,15)	(-7,79)	(42,21)	(5,25)	(94,3)	(-1,20)	(62,9)	(64,13)	(1,1)	(10,28)	(50,16)	(41,5)	(92,2)	(12,1)	
L1D -51>	(-248,4)	(-8,83)	(53,3)	(7,1)	(-1,24)	(94,2)	(50,14)	(39,27)	(36,16)	(42,11)	(28,14)	(-4,10)	(0,3)	(49,28)	(43,18)	(30,8)	
L1D -50>	(64,28)	(51,105)	(35,110)	(40,21)	(50,1)	(46,20)	(39,24)	(29,44)	(49,43)	(0,23)	(31,63)	(42,28)	(27,39)	(-9,60)	(48,41)	(7,21)	
L1D -49>	(7,15)	(6,15)	(9,2)	(39,21)	(-10,115)	(93,6)	(30,9)	(64,68)	(2,31)	(49,76)	(43,37)	(1,24)	(44,15)	(60,3)	(50,12)	(47,13)	
L1D -48>	(39,3)	(53,30)	(48,34)	(-11,11)	(50,1)	(46,8)	(6,116)	(0,27)	(51,9)	(64,27)	(112,32)	(8,10)	(3,14)	(1,5)	(2,16)	(-1,13)	
L1D -47>	(3,18)	(49,2)	(1,48)	(35,17)	(34,9)	(37,2)	(-12,2)	(2,90)	(24,7)	(43,60)	(15,4)	(58,9)	(57,37)	(64,13)	(47,77)	(44,15)	
L1D -46>	(0,4)	(4,21)	(40,38)	(-13,40)	(2,29)	(44,9)	(23,8)	(56,14)	(-1,23)	(46,35)	(48,23)	(1,75)	(42,11)	(41,21)	(49,4)	(50,2)	
L1D -45>	(33,1)	(43,48)	(47,10)	(26,23)	(41,68)	(34,14)	(-14,21)	(45,87)	(50,78)	(1,90)	(-1,25)	(22,12)	(25,5)	(3,48)	(42,27)	(27,7)	
L1D -44>	(29,1)	(59,1)	(43,1)	(52,2)	(2,50)	(-2,1)	(42,2)	(-11,1)	(4,2)	(40,2)	(44,3)	(46,89)	(39,1)	(38,4)	(36,0)	(54,0)	
L1D -43>	(42,60)	(41,46)	(45,119)	(6,19)	(30,16)	(44,15)	(3,102)	(51,11)	(15,1)	(2,62)	(8,6)	(40,56)	(37,15)	(-1,43)	(1,97)	(53,5)	
L1D -42>	(48,6)	(65,1)	(27,1)	(34,1)	(-1,4)	(-2,1)	(41,5)	(44,120)	(43,4)	(46,16)	(49,1)	(39,1)	(51,2)	(2,9)	(40,7)	(-3,2)	
L1D -41>	(44,115)	(41,27)	(-1,32)	(40,20)	(42,30)	(47,49)	(43,57)	(50,20)	(1,91)	(38,25)	(65,1)	(2,35)	(20,6)	(52,18)	(49,27)	(39,14)	
L1D -40>	(39,58)	(41,8)	(45,16)	(50,7)	(42,9)	(1,42)	(44,41)	(-19,10)	(-8,1)	(-1,15)	(-3,7)	(43,70)	(52,36)	(48,4)	(40,9)	(38,9)	
L1D -39>	(46,1)	(5,8)	(1,9)	(-20,19)	(30,23)	(38,96)	(40,2)	(42,17)	(49,7)	(-1,26)	(41,9)	(37,2)	(64,4)	(39,13)	(15,2)	(-3,4)	
L1D -38>	(39,22)	(42,40)	(-5,1)	(22,84)	(-4,14)	(30,49)	(38,120)	(34,84)	(11,8)	(16,35)	(1,52)	(-1,48)	(55,8)	(37,16)	(41,47)	(-2,41)	
L1D -37>	(25,6)	(11,6)	(19,2)	(37,18)	(9,19)	(36,16)	(-1,5)	(1,6)	(-22,4)	(23,7)	(40,7)	(32,1)	(-4,20)	(-2,14)	(28,104)	(34,8)	
L1D -36>	(5,3)	(33,1)	(194,0)	(36,2)	(35,3)	(-3,0)	(-8,0)	(51,0)	(43,0)	(-6,5)	(-1,1)	(44,2)	(4,20)	(2,90)	(41,0)	(42,0)	
L1D -35>	(-1,5)	(46,1)	(35,39)	(-5,104)	(42,8)	(37,5)	(41,12)	(-264,2)	(8,25)	(2,2)	(40,11)	(1,12)	(34,11)	(6,22)	(21,97)	(39,8)	
L1D -34>	(44,7)	(32,17)	(258,7)	(-5,4)	(38,12)	(42,23)	(-1,8)	(8,37)	(14,1)	(2,49)	(34,45)	(-8,9)	(37,2)	(24,20)	(41,8)	(-25,123)	
L1D -33>	(-1,21)	(1,25)	(42,18)	(43,5)	(2,6)	(-26,5)	(33,78)	(55,8)	(-9,20)	(32,22)	(22,19)	(64,16)	(41,19)	(34,11)	(44,1)	(10,18)	
L1D -32>	(4,24)	(32,80)	(14,5)	(292,27)	(22,11)	(41,83)	(0,13)	(33,15)	(31,63)	(-1,27)	(-27,54)	(3,1)	(10,6)	(1,21)	(30,12)	(29,12)	
L1D -31>	(-70,13)	(1,46)	(11,26)	(59,9)	(5,43)	(15,9)	(-9,15)	(-10,1)	(30,123)	(41,8)	(33,10)	(31,63)	(32,104)	(4,37)	(-28,41)	(7,124)	
L1D -30>	(-14,6)	(1,45)	(5,10)	(-3,5)	(29,1)	(31,11)	(2,11)	(59,33)	(30,74)	(-70,19)	(-1,52)	(-71,5)	(41,9)	(3,55)	(-10,32)	(10,18)	
L1D -29>	(29,43)	(1,10)	(-11,1)	(2,19)	(39,6)	(-9,6)	(-10,6)	(31,5)	(19,17)	(-1,7)	(41,4)	(8,11)	(6,50)	(-30,17)	(5,6)	(32,66)	
L1D -28>	(12,64)	(5,124)	(59,8)	(-70,7)	(-31,18)	(50,3)	(2,4)	(-2,11)	(1,94)	(0,7)	(18,8)	(28,37)	(-1,10)	(29,1)	(3,16)	(7,20)	
L1D -27>	(1,54)	(7,23)	(59,6)	(-1,9)	(28,1)	(29,10)	(12,20)	(8,47)	(-70,7)	(20,10)	(27,40)	(4,78)	(5,83)	(10,10)	(26,7)	(13,38)	
L1D -26>	(1,78)	(5,7)	(6,8)	(-5,10)	(29,2)	(15,23)	(26,18)	(23,3)	(4,3)	(42,2)	(2,14)	(22,5)	(32,6)	(-16,2)	(27,3)	(67,5)	
L1D -25>	(24,32)	(-12,1)	(59,46)	(13,14)	(1,27)	(5,21)	(-39,11)	(25,50)	(12,9)	(22,45)	(23,9)	(31,73)	(21,4)	(-1,14)	(10,10)	(-70,59)	
L1D -24>	(24,45)	(8,2)	(16,7)	(12,25)	(1,11)	(13,29)	(10,19)	(2,12)	(14,8)	(0,2)	(-18,1)	(4,7)	(25,2)	(-26,2)	(-12,85)	(31,27)	
L1D -23>	(-163,3)	(1,80)	(29,1)	(-42,3)	(59,2)	(-1,5)	(2,12)	(23,29)	(17,6)	(26,3)	(-8,8)	(18,5)	(22,12)	(6,12)	(20,3)	(24,72)	
L1D -22>	(31,67)	(1,108)	(21,11)	(19,9)	(18,16)	(22,24)	(-162,4)	(20,29)	(-5,55)	(16,7)	(23,20)	(32,4)	(-163,5)	(3,5)	(14,1)	(6,14)	
L1D -21>	(18,22)	(22,14)	(20,22)	(1,57)	(24,126)	(3,16)	(7,6)	(19,1)	(15,122)	(2,16)	(6,44)	(13,29)	(-42,13)	(4,28)	(21,32)	(-4,103)	
L1D -20>	(1,8)	(168,3)	(24,1)	(43,2)	(-70,7)	(33,9)	(5,7)	(46,4)	(6,3)	(20,70)	(21,4)	(-163,3)	(15,9)	(59,2)	(3,1)	(57,1)	
L1D -19>	(20,1)	(1,53)	(15,18)	(59,9)	(2,16)	(18,11)	(16,6)	(6,13)	(-42,8)	(7,10)	(4,90)	(-163,3)	(3,2)	(21,6)	(14,35)	(5,6)	
L1D -18>	(28,14)	(15,16)	(4,108)	(5,10)	(1,24)	(12,16)	(17,27)	(6,28)	(18,20)	(32,1)	(-24,19)	(2,21)	(11,31)	(43,48)	(14,22)	(3,76)	
L1D -17>	(3,14)	(1,21)	(44,1)	(14,5)	(6,27)	(2,31)	(42,1)	(-42,8)	(9,13)	(4,67)	(13,19)	(11,16)	(28,35)	(-1,6)	(5,15)	(15,10)	
L1D -16>	(-2,4)	(12,25)	(6,11)	(1,79)	(29,8)	(10,3)	(21,2)	(-5,33)	(3,29)	(-48,5)	(2,19)	(5,8)	(20,1)	(14,10)	(144,27)	(4,64)	
L1D -15>	(13,35)	(24,21)	(14,18)	(0,30)	(3,14)	(4,90)	(-6,14)	(9,30)	(-42,13)	(2,15)	(11,53)	(5,65)	(-41,1)	(22,9)	(12,36)	(6,25)	
L1D -14>	(-29,1)	(5,17)	(14,25)	(20,35)	(23,12)	(13,6)	(8,11)	(4,76)	(-42,11)	(9,15)	(0,16)	(10,16)	(2,13)	(3,8)	(6,17)	(1,24)	
L1D -13>	(1,13)	(2,14)	(10,16)	(0,7)	(-33,1)	(18,6)	(13,18)	(22,14)	(9,4)	(-42,11)	(4,35)	(5,39)	(24,75)	(6,31)	(-8,49)	(3,37)	
L1D -12>	(1,23)	(6,11)	(-32,17)	(4,23)	(16,1)	(-5,89)	(24,17)	(17,2)	(11,13)	(20,2)	(2,42)	(-42,7)	(-2,6)	(12,6)	(28,12)	(5,13)	
L1D -11>	(-42,6)	(0,7)	(2,15)	(20,11)	(1,15)	(5,21)	(-1,8)	(-60,5)	(3,19)	(10,13)	(4,99)	(-2,3)	(18,14)	(6,16)	(-40,12)	(11,1)	
L1D -10>	(59,12)	(-32,1)	(-21,113)	(1,55)	(6,53)	(2,109)	(5,43)	(8,36)	(0,18)	(11,10)	(14,30)	(4,127)	(18,17)	(9,83)	(3,37)	(-13,105)	
L1D -9>	(13,45)	(4,94)	(1,109)	(23,1)	(-72,37)	(6,59)	(9,29)	(7,35)	(10,89)	(5,43)	(-2,109)	(8,42)	(-42,32)	(11,6)	(2,123)	(18,23)	
L1D -8>	(-10,2)	(-42,7)	(14,104)	(7,8)	(23,3)	(42,5)	(136,2)	(-4,22)	(1,8)	(10,11)	(4,9)	(6,6)	(44,1)	(2,17)	(8,26)	(9,4)	
L1D -7>	(2,33)	(-4,11)	(1,105)	(4,47)	(0,33)	(7,66)	(9,55)	(10,48)	(-7,49)	(6,67)	(8,34)	(-42,1)	(5,59)	(-1,17)	(-8,32)	(3,18)	
L1D -6>	(-3,114)	(-41,2)	(-40,4)	(1,21)	(-1,3)	(7,5)	(8,39)	(-2,6)	(22,3)	(-42,3)	(-9,9)	(2,3)	(5,14)	(-153,3)	(4,7)	(14,4)	
L1D -5>	(3,14)	(25,34)	(4,92)	(1,43)	(21,78)	(5,104)	(-3,126)	(16,3)	(20,36)	(-2,24)	(8,65)	(7,42)	(6,18)	(2,42)	(0,7)	(-1,24)	
L1D -4>	(1,69)	(3,28)	(-42,6)	(-3,39)	(6,24)	(4,17)	(0,21)	(-1,22)	(5,9)	(-15,41)	(-12,4)	(2,32)	(-5,35)	(-4,17)	(-11,49)	(8,2)	
L1D -3>	(-12,6)	(7,99)	(88,1)	(-11,9)	(1,91)	(-1,2)	(6,5)	(3,7)	(4,7)	(2,7)	(-5,3)	(-15,7)	(-4,7)	(-13,2)	(-7,9)	(13,2)	
L1D -2>	(-3,13)	(0,99)	(2,11)	(-6,13)	(-15,12)	(-40,1)	(-11,3)	(-7,10)	(-14,2)	(1,61)	(4,17)	(-10,5)	(-5,18)	(3,8)	(-1,8)	(-13,6)	
L1D -1>	(-9,4)	(-11,9)	(-1,78)	(-2,10)	(4,48)	(-42,3)	(-3,92)	(1,100)	(-4,21)	(-7,14)	(5,1)	(2,32)	(3,57)	(0,59)	(-5,4)	(-185,1)	
L1D 0>	(0,81)	(1,11)	(5,0)	(-44,0)	(4,2)	(129,2)	(10,1)	(-171,0)	(-4,0)	(-38,0)	(-5,1)	(-166,0)	(-1,0)	(-167,0)	(2,2)	(-42,0)	
L1D 1>	(1,95)	(8,2)	(-21,1)	(7,2)	(0,8)	(-33,1)	(4,13)	(6,6)	(-1,35)	(2,18)	(-37,1)	(-42,2)	(54,2)	(-2,9)	(5,3)	(3,40)	
L1D 2>	(2,71)	(-44,1)	(4,13)	(1,8)	(-15,1)	(-508,1)	(-510,0)	(6,0)	(3,2)	(14,0)	(-36,1)	(44,2)	(8,0)	(-2,0)	(-6,3)	(-14,0)	
L1D 3>	(-1,59)	(-11,2)	(23,4)	(-4,3)	(3,8)	(-22,1)	(4,8)	(17,1)	(43,2)	(2,68)	(1,40)	(-3,1)	(6,4)	(5,1)	(0,2)	(22,1)	
L1D 4>	(2,92)	(-1,1)	(1,7)	(3,1)	(14,1)	(4,13)	(-42,1)	(-36,1)	(6,18)	(0,2)	(-5,0)	(9,0)	(-4,4)	(39,1)	(8,1)	(-9,0)	
L1D 5>	(-42,4)	(-2,6)	(-47,1)	(18,4)	(3,10)	(24,13)	(13,2)	(12,3)	(-5,20)	(11,4)	(1,9)	(7,7)	(6,98)	(2,16)	(-4,7)	(19,1)	
L1D 6>	(12,89)	(44,11)	(-48,9)	(-5,8)	(-13,8)	(-116,91)	(-52,1)	(2,83)	(-8,8)	(-1,13)	(6,7)	(4,14)	(-12,7)	(1,92)	(0,20)	(-6,9)	
L1D 7>	(2,125)	(40,2)	(-44,1)	(-6,15)	(9,2)	(3,13)	(1,12)	(-31,3)	(6,2)	(-27,4)	(-4,8)	(-1,6)	(-7,10)	(-5,6)	(11,4)	(-12,1)	
L1D 8>	(-4,18)	(-11,9)	(-1,34)	(-2,19)	(4,8)	(-7,16)	(5,8)	(1,28)	(-6,90)	(41,1)	(-8,70)	(-16,2)	(8,62)	(7,17)	(-3,14)	(2,91)	
L1D 9>	(-8,44)	(1,9)	(19,1)	(5,18)	(0,17)	(-24,7)	(-31,19)	(-3,46)	(-9,34)	(2,8)	(-2,69)	(-4,27)	(-6,38)	(-7,48)	(-1,18)	(41,5)	
L1D 10>	(-1,29)	(-24,54)	(-8,30)	(41,1)	(1,15)	(-6,51)	(-22,22)	(32,10)	(-7,5)	(-42,7)	(-2,20)	(10,3)	(-3,70)	(-9,32)	(6,3)	(-4,24)	
L1D 11>	(-8,12)	(-4,74)	(3,9)	(-42,12)	(-35,9)	(-1,22)	(-28,9)	(-25,1)	(-3,19)	(-9,11)	(-6,4)	(-15,10)	(-7,17)	(-5,13)	(-11,5)	(-2,12)	
L1D 12>	(-5,5)	(-42,1)	(3,2)	(41,1)	(-4,2)	(-509,1)	(-2,12)	(-8,5)	(13,93)	(-7,3)	(-15,1)	(-11,1)	(-10,3)	(-9,1)	(-6,2)	(-503,1)	
L1D 13>	(-176,1)	(-12,2)	(-6,4)	(-42,0)	(-8,68)	(-25,4)	(-1,0)	(-19,1)	(-2,4)	(-9,1)	(-11,2)	(11,3)	(-22,2)	(-3,1)	(-10,3)	(0,0)	
L1D 14>	(-42,2)	(6,97)	(32,1)	(-2,3)	(18,4)	(-24,8)	(-7,4)	(9,1)	(-13,5)	(-1,2)	(-210,1)	(-11,2)	(41,2)	(-22,3)	(-499,1)	(-4,6)	
L1D 15>	(-4,79)	(-18,8)	(-3,52)	(-26,47)	(-12,43)	(-6,82)	(-11,80)	(-13,37)	(-42,47)	(32,18)	(-14,31)	(-10,106)	(-2,25)	(-5,25)	(11,1)	(1,22)	
L1D 16>	(-13,16)	(41,4)	(-14,9)	(-4,34)	(-1,74)	(-6,5)	(-7,29)	(-24,17)	(-42,17)	(-16,11)	(3,86)	(15,1)	(-2,20)	(112,13)	(-12,5)	(0,5)	
L1D 17>	(-10,24)	(-19,29)	(-27,32)	(-42,6)	(-23,19)	(0,18)	(-24,7)	(-2,68)	(-21,23)	(-28,15)	(-15,47)	(-14,39)	(2,47)	(13,12)	(1,44)	(-13,58)	
L1D 18>	(-15,57)	(15,9)	(-6,17)	(1,97)	(-12,35)	(-14,42)	(-42,59)	(-18,11)	(-24,17)	(-17,34)	(-1,9)	(-3,70)	(-16,39)	(11,1)	(-13,53)	(-8,5)	
L1D 19>	(-16,13)	(-3,9)	(-15,50)	(-20,27)	(13,3)	(-1,45)	(-17,24)	(-2,12)	(-19,16)	(-5,8)	(-24,1)	(-13,2)	(-42,38)	(-25,6)	(-4,67)	(4,2)	
L1D 20>	(-5,9)	(0,12)	(-20,109)	(-15,11)	(-1,13)	(-6,8)	(1,6)	(24,1)	(-3,5)	(-17,10)	(-19,22)	(-16,11)	(-42,13)	(-2,32)	(-18,10)	(-21,23)	
L1D 21>	(-16,54)	(-1,28)	(-20,15)	(2,5)	(-19,30)	(-3,18)	(-42,25)	(-61,46)	(-18,10)	(-7,1)	(-25,23)	(8,74)	(6,26)	(1,37)	(-15,33)	(-2,43)	
L1D 22>	(-1,26)	(-42,20)	(3,18)	(-21,10)	(-23,27)	(-24,94)	(-3,18)	(-28,36)	(-10,1)	(-18,27)	(-4,26)	(-11,12)	(-19,17)	(-8,33)	(0,7)	(-12,9)	
L1D 23>	(-1,21)	(-3,16)	(-24,17)	(1,93)	(7,1)	(3,32)	(-5,3)	(-42,17)	(-21,38)	(-4,28)	(-2,32)	(-18,11)	(-23,3)	(-8,3)	(-20,13)	(-19,34)	
L1D 24>	(-37,51)	(-28,3)	(-25,5)	(-1,20)	(-11,8)	(0,56)	(-29,7)	(1,13)	(-42,3)	(-5,5)	(-10,66)	(-31,0)	(-21,7)	(-3,5)	(-24,5)	(-20,1)	
L1D 25>	(-23,10)	(56,26)	(-133,60)	(16,1)	(103,7)	(-26,54)	(-42,69)	(-19,10)	(-2,94)	(-40,50)	(-21,62)	(2,26)	(-178,35)	(-1,18)	(-4,41)	(-25,9)	
L1D 26>	(-25,30)	(49,1)	(-37,36)	(-41,18)	(-8,9)	(2,29)	(-42,72)	(-27,33)	(1,66)	(-2,17)	(-1,11)	(-7,7)	(0,21)	(-3,53)	(-22,20)	(-23,20)	
L1D 27>	(-8,22)	(-3,7)	(-1,8)	(0,12)	(-28,44)	(-43,1)	(8,8)	(-42,96)	(-24,15)	(-16,48)	(1,14)	(-4,55)	(2,5)	(-41,34)	(12,12)	(-40,30)	
L1D 28>	(-41,5)	(-4,8)	(-40,4)	(0,100)	(-27,7)	(-1,13)	(-28,10)	(-5,59)	(-33,1)	(-24,22)	(2,21)	(-29,17)	(-42,26)	(-23,6)	(-26,8)	(-7,7)	
L1D 29>	(-25,35)	(-17,8)	(-40,35)	(-1,13)	(-9,18)	(-28,8)	(-33,1)	(0,12)	(6,25)	(-41,10)	(1,12)	(-21,89)	(-42,118)	(11,12)	(-26,8)	(-30,33)	
L1D 30>	(-9,43)	(-32,15)	(-31,40)	(-13,31)	(0,27)	(-42,94)	(-30,7)	(1,32)	(2,1)	(-24,4)	(11,8)	(-38,9)	(-8,9)	(-1,15)	(-40,13)	(29,3)	
L1D 31>	(-40,16)	(2,7)	(-42,67)	(8,10)	(-15,1)	(-8,47)	(-13,94)	(0,19)	(-12,5)	(-6,20)	(-41,18)	(-32,24)	(9,7)	(-1,70)	(1,17)	(10,18)	
L1D 32>	(-17,1)	(8,29)	(-29,21)	(-8,9)	(1,8)	(-36,11)	(11,8)	(-42,77)	(-1,37)	(-31,22)	(-26,5)	(10,10)	(-27,45)	(-33,26)	(-32,9)	(0,33)	
L1D 33>	(-159,1)	(-42,122)	(11,32)	(-60,8)	(-40,45)	(8,13)	(-1,66)	(-33,12)	(0,5)	(-34,50)	(2,7)	(-41,22)	(22,4)	(4,12)	(-35,10)	(-2,15)	
L1D 34>	(-18,24)	(-42,96)	(-7,4)	(-40,8)	(1,38)	(-47,1)	(-32,71)	(-36,7)	(-23,5)	(-41,18)	(-10,15)	(-35,45)	(0,7)	(-24,28)	(-21,13)	(-34,23)	
L1D 35>	(-207,5)	(-14,4)	(1,9)	(-4,5)	(4,9)	(16,1)	(-8,31)	(5,5)	(10,3)	(-42,82)	(8,8)	(2,16)	(-25,1)	(3,6)	(-36,39)	(-40,12)	
L1D 36>	(5,5)	(10,6)	(-15,1)	(-2,2)	(8,4)	(-11,2)	(-1,7)	(-38,3)	(-37,27)	(-41,11)	(3,4)	(-36,1)	(-42,124)	(-40,11)	(-8,17)	(1,3)	
L1D 37>	(-8,25)	(38,32)	(-489,4)	(7,1)	(-41,25)	(75,4)	(-37,6)	(-44,11)	(-42,127)	(-40,58)	(-2,7)	(-39,26)	(-38,106)	(1,21)	(-9,5)	(10,3)	
L1D 38>	(3,3)	(-7,6)	(2,5)	(-41,20)	(-5,6)	(-13,7)	(-1,5)	(-43,5)	(-4,1)	(-2,4)	(4,2)	(-12,3)	(-39,117)	(-40,18)	(-42,40)	(-44,3)	
L1D 39>	(4,9)	(-43,5)	(-9,2)	(-1,10)	(-39,2)	(-40,70)	(-8,5)	(-10,4)	(5,1)	(1,5)	(3,3)	(-41,5)	(-12,2)	(2,8)	(-42,45)	(-13,1)	
L1D 40>	(-41,32)	(-44,24)	(-46,22)	(-42,94)	(-12,11)	(1,14)	(-8,16)	(-11,17)	(-6,1)	(-43,51)	(-2,5)	(-45,26)	(-1,16)	(-15,34)	(-40,3)	(-10,5)	
L1D 41>	(-42,114)	(3,3)	(5,20)	(-3,19)	(251,12)	(-4,6)	(-12,17)	(-43,26)	(-37,7)	(-47,9)	(-11,15)	(-45,14)	(-44,25)	(-2,10)	(-1,68)	(0,1)	
L1D 42>	(-1,35)	(-43,108)	(-25,36)	(3,34)	(-41,12)	(-6,1)	(-7,32)	(-26,36)	(-9,33)	(-40,45)	(2,68)	(-31,5)	(-42,16)	(-2,36)	(-39,8)	(-34,2)	
L1D 43>	(-44,9)	(0,1)	(-35,5)	(13,9)	(8,11)	(-23,19)	(-42,77)	(2,10)	(1,4)	(-3,7)	(-41,19)	(6,7)	(19,4)	(-40,22)	(3,7)	(-21,4)	
L1D 44>	(-42,70)	(2,3)	(6,2)	(12,1)	(-48,0)	(-45,0)	(-15,0)	(10,0)	(-46,0)	(9,0)	(0,0)	(1,0)	(-43,0)	(-1,0)	(-3,0)	(-25,0)	
L1D 45>	(1,10)	(-60,6)	(-17,2)	(-44,3)	(-1,7)	(-43,12)	(-5,27)	(-42,78)	(-41,2)	(-4,1)	(-40,10)	(-46,9)	(0,1)	(2,5)	(4,3)	(15,2)	
L1D 46>	(-6,2)	(-60,2)	(-52,1)	(-36,1)	(-45,1)	(0,2)	(-48,0)	(-44,99)	(6,2)	(-3,0)	(-1,0)	(-42,115)	(-2,0)	(-47,1)	(-43,3)	(-8,0)	
L1D 47>	(-42,79)	(-1,4)	(-8,2)	(-2,8)	(-7,2)	(1,12)	(-48,22)	(-5,6)	(-43,6)	(0,8)	(6,2)	(-44,1)	(-47,1)	(-60,11)	(-3,7)	(-12,6)	
L1D 48>	(-60,4)	(-1,2)	(-49,4)	(-2,2)	(-10,1)	(9,1)	(8,3)	(2,15)	(42,3)	(-42,97)	(4,3)	(-37,2)	(-45,2)	(-5,1)	(1,1)	(-4,1)	
L1D 49>	(-3,6)	(-60,5)	(-8,1)	(-42,64)	(-49,8)	(-12,12)	(-1,7)	(-13,2)	(1,1)	(-2,3)	(-50,12)	(-43,6)	(-10,5)	(-41,2)	(-4,3)	(-73,1)	
L1D 50>	(-51,2)	(-60,3)	(6,1)	(-7,1)	(-12,1)	(-45,3)	(-48,9)	(-8,2)	(-47,2)	(-24,4)	(-1,3)	(-42,99)	(-6,7)	(-21,1)	(-2,1)	(1,2)	
L1D 51>	(-42,117)	(4,6)	(-55,12)	(-8,12)	(-43,12)	(43,2)	(-52,38)	(-398,3)	(-9,4)	(-48,5)	(-1,8)	(-4,1)	(-60,9)	(-12,15)	(2,4)	(42,10)	
L1D 52>	(-12,107)	(-53,11)	(-43,13)	(-24,3)	(-50,4)	(-60,12)	(39,3)	(-7,1)	(-1,12)	(-42,127)	(-2,7)	(-52,38)	(-9,7)	(40,2)	(-6,31)	(-8,13)	
L1D 53>	(-9,3)	(-53,29)	(7,4)	(-10,9)	(-43,8)	(-60,9)	(-49,1)	(-42,98)	(-2,4)	(-8,5)	(-24,40)	(-1,11)	(-5,19)	(-44,2)	(6,2)	(-11,1)	
L1D 54>	(-54,6)	(-2,4)	(-60,8)	(-42,98)	(-28,1)	(-11,6)	(-22,4)	(-15,1)	(-8,10)	(-63,7)	(-1,18)	(-52,7)	(-24,1)	(-9,4)	(5,2)	(-12,4)	
L1D 55>	(-2,9)	(1,2)	(-65,4)	(-3,5)	(-1,9)	(0,17)	(-21,3)	(-24,6)	(-42,77)	(-12,7)	(-64,1)	(-55,13)	(-54,11)	(-43,8)	(-8,10)	(-60,3)	
L1D 56>	(-398,11)	(-42,107)	(-52,26)	(6,2)	(-22,3)	(-64,46)	(61,16)	(2,10)	(-56,26)	(-148,3)	(-1,31)	(-13,18)	(-8,5)	(0,2)	(-3,1)	(56,20)	
L1D 57>	(-57,58)	(-55,8)	(-403,3)	(-2,14)	(-1,22)	(-11,5)	(-24,26)	(-60,10)	(-8,7)	(-42,96)	(-10,8)	(-12,8)	(-52,18)	(-20,4)	(60,1)	(-61,4)	
L1D 58>	(-42,44)	(-2,16)	(-61,3)	(-59,12)	(-152,3)	(-5,3)	(-15,9)	(-1,12)	(-14,3)	(-43,2)	(-16,2)	(-21,14)	(-63,1)	(-4,98)	(-58,1)	(-60,20)	
L1D 59>	(-49,50)	(-40,25)	(-42,92)	(0,23)	(-52,83)	(-32,42)	(-29,27)	(-57,22)	(-46,30)	(-60,66)	(-62,21)	(-36,12)	(-37,9)	(-39,23)	(-129,1)	(-34,80)	
L1D 60>	(-10,4)	(-60,10)	(57,21)	(-154,22)	(-299,1)	(52,9)	(-9,10)	(-4,18)	(-59,7)	(-3,4)	(-42,113)	(-61,6)	(-17,3)	(-1,25)	(-28,3)	(-2,26)	
L1D 61>	(-1,6)	(-60,18)	(-42,74)	(-18,14)	(2,5)	(-3,1)	(-22,4)	(-5,2)	(-56,11)	(17,8)	(-403,17)	(-59,10)	(-54,9)	(9,3)	(-286,2)	(1,19)	
L1D 62>	(0,99)	(-10,11)	(-59,12)	(-42,20)	(-132,36)	(-154,1)	(-253,1)	(-2,4)	(4,3)	(-60,32)	(-1,9)	(-19,4)	(-41,4)	(36,1)	(1,22)	(-6,3)	
L1D 63>	(-2,11)	(-17,1)	(1,2)	(-64,4)	(-60,79)	(13,1)	(-20,10)	(-42,68)	(0,7)	(-62,2)	(-1,4)	(4,10)	(-133,15)	(-59,12)	(-43,10)	(64,11)	
L1D 64>	(11,25)	(-42,10)	(-16,22)	(0,15)	(-176,93)	(19,4)	(-56,71)	(-60,15)	(-64,34)	(-21,1)	(-7,12)	(26,10)	(-8,7)	(23,3)	(-6,8)	(-24,14)	
L1D 65>	(-7,9)	(-60,13)	(-2,2)	(-81,14)	(-42,49)	(-22,4)	(64,5)	(0,5)	(-11,3)	(-64,109)	(-9,40)	(-8,24)	(1,2)	(52,7)	(-1,8)	(-57,4)	
L1D 66>	(-7,76)	(-9,30)	(4,22)	(64,33)	(-60,46)	(-1,6)	(-64,57)	(-65,17)	(9,1)	(-42,100)	(-23,34)	(-81,16)	(61,8)	(-11,6)	(-63,12)	(16,13)	
L1D 67>	(-4,3)	(-9,6)	(-7,4)	(-62,1)	(-60,29)	(-64,40)	(1,7)	(-42,119)	(-24,17)	(-75,1)	(183,1)	(8,3)	(0,16)	(4,2)	(197,1)	(-3,30)	
L1D 68>	(16,3)	(-9,11)	(-60,92)	(-42,68)	(-25,15)	(4,3)	(-231,12)	(-66,6)	(-7,5)	(-23,4)	(9,3)	(-2,1)	(1,23)	(-64,57)	(5,8)	(-4,15)	
L1D 69>	(-6,2)	(-62,1)	(2,6)	(-60,8)	(-26,2)	(-66,1)	(15,0)	(-3,1)	(-42,76)	(4,2)	(3,1)	(-1,4)	(1,3)	(42,4)	(-39,0)	(-4,1)	
[...]
L1D 474>	(-107,2)	(-212,1)	(1,0)	(1,0)	(1,0)	(1,0)	(1,0)	(1,0)	(1,0)	(1,0)	(1,0)	(1,0)	(1,0)	(1,0)	(1,0)	(1,0)	
L1D 475>	(-110,1)	(-180,3)	(1,0)	(1,0)	(1,0)	(1,0)	(1,0)	(1,0)	(1,0)	(1,0)	(1,0)	(1,0)	(1,0)	(1,0)	(1,0)	(1,0)	
L1D 476>	(-200,19)	(-398,1)	(-85,1)	(-5,1)	(1,0)	(1,0)	(1,0)	(1,0)	(1,0)	(1,0)	(1,0)	(1,0)	(1,0)	(1,0)	(1,0)	(1,0)	
L1D 477>	(-160,1)	(1,0)	(1,0)	(1,0)	(1,0)	(1,0)	(1,0)	(1,0)	(1,0)	(1,0)	(1,0)	(1,0)	(1,0)	(1,0)	(1,0)	(1,0)	
L1D 478>	(1,0)	(1,0)	(1,0)	(1,0)	(1,0)	(1,0)	(1,0)	(1,0)	(1,0)	(1,0)	(1,0)	(1,0)	(1,0)	(1,0)	(1,0)	(1,0)	
L1D 479>	(-218,1)	(-216,1)	(1,0)	(1,0)	(1,0)	(1,0)	(1,0)	(1,0)	(1,0)	(1,0)	(1,0)	(1,0)	(1,0)	(1,0)	(1,0)	(1,0)	
L1D 480>	(-224,1)	(-32,5)	(-344,1)	(-359,1)	(-480,28)	(-409,47)	(-472,2)	(-192,1)	(1,0)	(1,0)	(1,0)	(1,0)	(1,0)	(1,0)	(1,0)	(1,0)	
L1D 481>	(6,5)	(1,0)	(1,0)	(1,0)	(1,0)	(1,0)	(1,0)	(1,0)	(1,0)	(1,0)	(1,0)	(1,0)	(1,0)	(1,0)	(1,0)	(1,0)	
L1D 482>	(6,1)	(-193,1)	(-117,1)	(-119,2)	(1,0)	(1,0)	(1,0)	(1,0)	(1,0)	(1,0)	(1,0)	(1,0)	(1,0)	(1,0)	(1,0)	(1,0)	
L1D 483>	(1,0)	(1,0)	(1,0)	(1,0)	(1,0)	(1,0)	(1,0)	(1,0)	(1,0)	(1,0)	(1,0)	(1,0)	(1,0)	(1,0)	(1,0)	(1,0)	
L1D 484>	(-192,1)	(1,0)	(1,0)	(1,0)	(1,0)	(1,0)	(1,0)	(1,0)	(1,0)	(1,0)	(1,0)	(1,0)	(1,0)	(1,0)	(1,0)	(1,0)	
L1D 485>	(11,2)	(-218,1)	(-192,2)	(1,0)	(1,0)	(1,0)	(1,0)	(1,0)	(1,0)	(1,0)	(1,0)	(1,0)	(1,0)	(1,0)	(1,0)	(1,0)	
L1D 486>	(1,0)	(1,0)	(1,0)	(1,0)	(1,0)	(1,0)	(1,0)	(1,0)	(1,0)	(1,0)	(1,0)	(1,0)	(1,0)	(1,0)	(1,0)	(1,0)	
L1D 487>	(-192,1)	(1,0)	(1,0)	(1,0)	(1,0)	(1,0)	(1,0)	(1,0)	(1,0)	(1,0)	(1,0)	(1,0)	(1,0)	(1,0)	(1,0)	(1,0)	
L1D 488>	(-16,1)	(-128,1)	(1,0)	(1,0)	(1,0)	(1,0)	(1,0)	(1,0)	(1,0)	(1,0)	(1,0)	(1,0)	(1,0)	(1,0)	(1,0)	(1,0)	
L1D 489>	(1,0)	(1,0)	(1,0)	(1,0)	(1,0)	(1,0)	(1,0)	(1,0)	(1,0)	(1,0)	(1,0)	(1,0)	(1,0)	(1,0)	(1,0)	(1,0)	
L1D 490>	(-88,1)	(1,0)	(1,0)	(1,0)	(1,0)	(1,0)	(1,0)	(1,0)	(1,0)	(1,0)	(1,0)	(1,0)	(1,0)	(1,0)	(1,0)	(1,0)	
L1D 491>	(1,0)	(1,0)	(1,0)	(1,0)	(1,0)	(1,0)	(1,0)	(1,0)	(1,0)	(1,0)	(1,0)	(1,0)	(1,0)	(1,0)	(1,0)	(1,0)	
L1D 492>	(1,0)	(1,0)	(1,0)	(1,0)	(1,0)	(1,0)	(1,0)	(1,0)	(1,0)	(1,0)	(1,0)	(1,0)	(1,0)	(1,0)	(1,0)	(1,0)	
L1D 493>	(11,1)	(1,0)	(1,0)	(1,0)	(1,0)	(1,0)	(1,0)	(1,0)	(1,0)	(1,0)	(1,0)	(1,0)	(1,0)	(1,0)	(1,0)	(1,0)	
L1D 494>	(-218,1)	(1,0)	(1,0)	(1,0)	(1,0)	(1,0)	(1,0)	(1,0)	(1,0)	(1,0)	(1,0)	(1,0)	(1,0)	(1,0)	(1,0)	(1,0)	
L1D 495>	(1,0)	(1,0)	(1,0)	(1,0)	(1,0)	(1,0)	(1,0)	(1,0)	(1,0)	(1,0)	(1,0)	(1,0)	(1,0)	(1,0)	(1,0)	(1,0)	
L1D 496>	(-148,1)	(1,0)	(1,0)	(1,0)	(1,0)	(1,0)	(1,0)	(1,0)	(1,0)	(1,0)	(1,0)	(1,0)	(1,0)	(1,0)	(1,0)	(1,0)	
L1D 497>	(1,0)	(1,0)	(1,0)	(1,0)	(1,0)	(1,0)	(1,0)	(1,0)	(1,0)	(1,0)	(1,0)	(1,0)	(1,0)	(1,0)	(1,0)	(1,0)	
L1D 498>	(-182,1)	(1,0)	(1,0)	(1,0)	(1,0)	(1,0)	(1,0)	(1,0)	(1,0)	(1,0)	(1,0)	(1,0)	(1,0)	(1,0)	(1,0)	(1,0)	
L1D 499>	(-405,1)	(11,1)	(1,0)	(1,0)	(1,0)	(1,0)	(1,0)	(1,0)	(1,0)	(1,0)	(1,0)	(1,0)	(1,0)	(1,0)	(1,0)	(1,0)	
L1D 500>	(1,0)	(1,0)	(1,0)	(1,0)	(1,0)	(1,0)	(1,0)	(1,0)	(1,0)	(1,0)	(1,0)	(1,0)	(1,0)	(1,0)	(1,0)	(1,0)	
L1D 501>	(1,0)	(1,0)	(1,0)	(1,0)	(1,0)	(1,0)	(1,0)	(1,0)	(1,0)	(1,0)	(1,0)	(1,0)	(1,0)	(1,0)	(1,0)	(1,0)	
L1D 502>	(1,0)	(1,0)	(1,0)	(1,0)	(1,0)	(1,0)	(1,0)	(1,0)	(1,0)	(1,0)	(1,0)	(1,0)	(1,0)	(1,0)	(1,0)	(1,0)	
L1D 503>	(1,0)	(1,0)	(1,0)	(1,0)	(1,0)	(1,0)	(1,0)	(1,0)	(1,0)	(1,0)	(1,0)	(1,0)	(1,0)	(1,0)	(1,0)	(1,0)	
L1D 504>	(-375,6)	(1,0)	(1,0)	(1,0)	(1,0)	(1,0)	(1,0)	(1,0)	(1,0)	(1,0)	(1,0)	(1,0)	(1,0)	(1,0)	(1,0)	(1,0)	
L1D 505>	(1,0)	(1,0)	(1,0)	(1,0)	(1,0)	(1,0)	(1,0)	(1,0)	(1,0)	(1,0)	(1,0)	(1,0)	(1,0)	(1,0)	(1,0)	(1,0)	
L1D 506>	(1,0)	(1,0)	(1,0)	(1,0)	(1,0)	(1,0)	(1,0)	(1,0)	(1,0)	(1,0)	(1,0)	(1,0)	(1,0)	(1,0)	(1,0)	(1,0)	
L1D 507>	(1,0)	(1,0)	(1,0)	(1,0)	(1,0)	(1,0)	(1,0)	(1,0)	(1,0)	(1,0)	(1,0)	(1,0)	(1,0)	(1,0)	(1,0)	(1,0)	
L1D 508>	(1,0)	(1,0)	(1,0)	(1,0)	(1,0)	(1,0)	(1,0)	(1,0)	(1,0)	(1,0)	(1,0)	(1,0)	(1,0)	(1,0)	(1,0)	(1,0)	
L1D 509>	(1,0)	(1,0)	(1,0)	(1,0)	(1,0)	(1,0)	(1,0)	(1,0)	(1,0)	(1,0)	(1,0)	(1,0)	(1,0)	(1,0)	(1,0)	(1,0)	
L1D 510>	(1,0)	(1,0)	(1,0)	(1,0)	(1,0)	(1,0)	(1,0)	(1,0)	(1,0)	(1,0)	(1,0)	(1,0)	(1,0)	(1,0)	(1,0)	(1,0)	
L1D 511>	(1,0)	(1,0)	(1,0)	(1,0)	(1,0)	(1,0)	(1,0)	(1,0)	(1,0)	(1,0)	(1,0)	(1,0)	(1,0)	(1,0)	(1,0)	(1,0)	

L2C -64>	(-63,2)	(1,141)	(-7,0)	(-62,3)	(13,0)	(-61,2)	(5,1)	(4,1)	(-1,0)	(-4,0)	(-3,1)	(2,27)	(3,14)	(-22,0)	(-17,0)	(-5,2)	
L2C -63>	(1,132)	(4,13)	(2,9)	(3,5)	(6,0)	(7,0)	(1,0)	(1,0)	(1,0)	(1,0)	(1,0)	(1,0)	(1,0)	(1,0)	(1,0)	(1,0)	
L2C -62>	(1,176)	(10,0)	(3,4)	(5,0)	(4,5)	(2,40)	(-1,97)	(1,0)	(1,0)	(1,0)	(1,0)	(1,0)	(1,0)	(1,0)	(1,0)	(1,0)	
L2C -61>	(16,1)	(6,2)	(1,183)	(4,19)	(3,4)	(2,150)	(-1,9)	(5,24)	(28,2)	(14,1)	(9,2)	(10,2)	(32,1)	(23,1)	(33,1)	(1,0)	
L2C -60>	(33,1)	(1,69)	(3,5)	(2,11)	(4,7)	(26,1)	(-1,4)	(5,1)	(1,0)	(1,0)	(1,0)	(1,0)	(1,0)	(1,0)	(1,0)	(1,0)	
L2C -59>	(1,50)	(5,1)	(-2,2)	(4,5)	(3,6)	(-1,2)	(2,7)	(1,0)	(1,0)	(1,0)	(1,0)	(1,0)	(1,0)	(1,0)	(1,0)	(1,0)	
L2C -58>	(28,1)	(1,37)	(-5,2)	(11,1)	(4,2)	(6,1)	(2,2)	(5,1)	(49,1)	(9,1)	(3,2)	(7,1)	(1,0)	(1,0)	(1,0)	(1,0)	
L2C -57>	(1,15)	(3,1)	(33,2)	(2,4)	(46,1)	(22,1)	(6,1)	(8,1)	(5,8)	(-5,1)	(24,1)	(10,1)	(-3,1)	(1,0)	(1,0)	(1,0)	
L2C -56>	(1,22)	(31,2)	(7,3)	(8,1)	(-1,3)	(-2,1)	(3,2)	(54,1)	(26,1)	(-5,2)	(6,1)	(4,7)	(9,2)	(5,7)	(33,2)	(-4,1)	
L2C -55>	(-1,2)	(1,27)	(2,2)	(4,3)	(-5,6)	(35,1)	(21,1)	(-4,1)	(3,2)	(9,1)	(-7,1)	(19,2)	(12,1)	(5,1)	(48,1)	(14,1)	
L2C -54>	(1,5)	(7,1)	(3,1)	(20,1)	(21,1)	(24,1)	(33,1)	(31,1)	(53,1)	(-5,2)	(36,1)	(-2,1)	(1,0)	(1,0)	(1,0)	(1,0)	
L2C -53>	(42,1)	(54,2)	(1,8)	(2,1)	(28,1)	(25,2)	(10,2)	(29,1)	(4,1)	(35,1)	(-5,4)	(30,1)	(17,1)	(-8,1)	(1,0)	(1,0)	
L2C -52>	(28,4)	(50,1)	(1,9)	(21,1)	(6,1)	(4,1)	(41,1)	(38,2)	(42,1)	(10,1)	(36,2)	(40,1)	(26,1)	(8,1)	(31,1)	(17,1)	
L2C -51>	(1,15)	(-1,1)	(41,3)	(8,1)	(6,2)	(10,2)	(-4,1)	(39,1)	(33,1)	(42,1)	(11,1)	(36,1)	(52,1)	(27,1)	(56,1)	(49,1)	
L2C -50>	(1,13)	(6,3)	(2,1)	(-5,1)	(4,2)	(55,1)	(-2,1)	(33,1)	(9,1)	(45,1)	(12,1)	(46,1)	(29,1)	(7,1)	(22,1)	(-1,3)	
L2C -49>	(1,23)	(0,5)	(27,1)	(2,8)	(34,1)	(51,1)	(37,2)	(39,1)	(15,2)	(16,1)	(26,1)	(23,1)	(25,3)	(4,2)	(33,1)	(5,2)	
L2C -48>	(49,2)	(1,14)	(-2,2)	(-8,3)	(50,1)	(32,1)	(3,3)	(4,1)	(-6,1)	(2,1)	(15,1)	(45,1)	(7,2)	(41,1)	(-1,2)	(17,1)	
L2C -47>	(1,17)	(40,2)	(-14,1)	(-1,2)	(22,1)	(-2,1)	(46,1)	(14,1)	(-9,1)	(58,1)	(8,1)	(37,1)	(11,2)	(3,2)	(5,1)	(34,1)	
L2C -46>	(32,2)	(1,16)	(36,2)	(13,1)	(4,2)	(49,1)	(-8,1)	(53,1)	(47,2)	(43,2)	(27,1)	(35,1)	(-6,1)	(3,6)	(6,2)	(38,1)	
L2C -45>	(2,5)	(23,1)	(-1,6)	(0,3)	(47,3)	(10,2)	(18,1)	(54,1)	(-3,1)	(16,2)	(-8,1)	(56,1)	(19,1)	(29,1)	(3,3)	(1,7)	
L2C -44>	(1,15)	(20,3)	(-2,4)	(47,1)	(17,2)	(46,2)	(4,2)	(27,4)	(21,1)	(-1,3)	(5,1)	(29,1)	(2,2)	(-3,1)	(35,1)	(-8,1)	
L2C -43>	(1,12)	(37,1)	(26,1)	(-5,1)	(8,1)	(9,2)	(25,2)	(44,1)	(32,2)	(3,1)	(-4,1)	(17,1)	(4,2)	(47,1)	(6,1)	(23,1)	
L2C -42>	(37,2)	(1,16)	(-18,1)	(43,2)	(24,1)	(4,1)	(2,2)	(28,1)	(29,1)	(40,1)	(9,2)	(16,1)	(11,1)	(19,1)	(41,3)	(3,3)	
L2C -41>	(-1,8)	(3,3)	(1,21)	(59,1)	(0,1)	(2,4)	(29,1)	(9,1)	(-4,1)	(42,1)	(30,2)	(-13,1)	(25,1)	(28,2)	(11,2)	(56,1)	
L2C -40>	(34,2)	(1,16)	(3,3)	(-1,3)	(28,1)	(4,3)	(14,1)	(7,2)	(-14,1)	(33,1)	(30,1)	(41,2)	(39,1)	(6,2)	(-19,1)	(-2,2)	
L2C -39>	(17,3)	(40,3)	(25,1)	(6,3)	(-6,1)	(1,18)	(38,1)	(29,1)	(21,1)	(16,1)	(0,1)	(33,1)	(-10,3)	(53,1)	(54,1)	(34,1)	
L2C -38>	(2,2)	(-4,2)	(1,14)	(-3,2)	(-24,1)	(-16,1)	(42,2)	(8,2)	(13,1)	(32,1)	(-2,1)	(52,1)	(14,1)	(20,1)	(5,2)	(4,1)	
L2C -37>	(7,3)	(1,17)	(34,1)	(-8,2)	(-2,2)	(32,1)	(35,1)	(3,2)	(2,3)	(-12,1)	(47,1)	(-1,8)	(-13,1)	(12,2)	(15,2)	(31,1)	
L2C -36>	(27,5)	(4,7)	(1,26)	(-1,4)	(16,4)	(5,4)	(-5,2)	(8,1)	(31,1)	(-21,2)	(-4,1)	(2,7)	(-8,1)	(6,5)	(25,4)	(33,1)	
L2C -35>	(1,31)	(-1,7)	(4,4)	(22,1)	(31,2)	(-16,1)	(5,1)	(45,1)	(-5,1)	(10,2)	(36,4)	(12,1)	(8,3)	(29,2)	(15,2)	(7,2)	
L2C -34>	(4,2)	(39,1)	(-11,2)	(20,1)	(1,30)	(-8,1)	(10,1)	(18,4)	(21,2)	(3,6)	(35,1)	(7,1)	(-1,3)	(34,1)	(-5,1)	(2,4)	
L2C -33>	(1,23)	(-9,2)	(24,4)	(2,11)	(10,4)	(5,2)	(-17,4)	(-30,2)	(34,4)	(19,1)	(33,3)	(18,1)	(11,1)	(36,1)	(-1,5)	(-4,1)	
L2C -32>	(8,2)	(1,20)	(6,3)	(2,3)	(-31,1)	(5,2)	(46,1)	(50,2)	(51,1)	(33,4)	(3,2)	(-16,1)	(24,1)	(25,2)	(0,1)	(26,1)	
L2C -31>	(4,3)	(1,26)	(5,4)	(2,6)	(37,3)	(-17,2)	(-8,2)	(3,2)	(-5,2)	(-15,1)	(-19,1)	(-1,4)	(31,1)	(42,1)	(0,4)	(6,1)	
L2C -30>	(1,34)	(-2,5)	(4,3)	(23,2)	(-1,7)	(29,1)	(25,2)	(8,4)	(34,2)	(2,5)	(11,3)	(19,3)	(31,2)	(-8,1)	(14,2)	(6,10)	
L2C -29>	(1,27)	(0,6)	(10,3)	(-9,1)	(-8,5)	(-12,2)	(7,2)	(-1,10)	(50,2)	(3,3)	(2,6)	(-16,2)	(-2,3)	(4,2)	(30,1)	(27,2)	
L2C -28>	(-2,2)	(1,28)	(-8,3)	(5,4)	(48,2)	(41,3)	(12,2)	(30,2)	(-34,1)	(-1,9)	(2,7)	(45,2)	(4,11)	(27,1)	(21,1)	(56,1)	
L2C -27>	(1,30)	(-1,4)	(25,3)	(-5,5)	(5,1)	(29,1)	(7,1)	(15,2)	(10,3)	(4,3)	(12,2)	(-4,3)	(27,6)	(6,4)	(-10,1)	(28,1)	
L2C -26>	(16,3)	(31,3)	(17,1)	(1,14)	(-3,6)	(-1,7)	(-27,1)	(6,1)	(-7,2)	(23,1)	(28,2)	(47,1)	(30,2)	(10,1)	(-35,1)	(-4,3)	
L2C -25>	(16,1)	(1,14)	(39,1)	(26,7)	(-1,13)	(-28,2)	(-8,1)	(3,1)	(11,3)	(6,3)	(-4,1)	(17,2)	(10,6)	(25,1)	(-5,3)	(0,5)	
L2C -24>	(7,2)	(1,34)	(6,5)	(32,3)	(-1,8)	(2,5)	(-23,3)	(9,3)	(5,3)	(20,3)	(31,2)	(0,4)	(27,2)	(-5,1)	(-12,2)	(39,1)	
L2C -23>	(1,29)	(25,2)	(-10,4)	(0,3)	(4,5)	(5,6)	(-1,2)	(9,1)	(3,2)	(16,2)	(20,1)	(27,3)	(-8,4)	(29,3)	(26,4)	(-3,3)	
L2C -22>	(0,2)	(21,2)	(-2,7)	(50,1)	(-12,1)	(11,3)	(-27,1)	(1,38)	(-19,1)	(23,2)	(-35,2)	(-1,6)	(34,2)	(14,3)	(-7,1)	(7,3)	
L2C -21>	(2,9)	(14,4)	(1,40)	(0,76)	(11,2)	(21,8)	(8,8)	(-6,5)	(3,1)	(10,3)	(33,1)	(-5,2)	(45,1)	(34,1)	(-26,1)	(-1,8)	
L2C -20>	(13,4)	(10,4)	(1,32)	(-1,3)	(-17,1)	(-18,1)	(-3,3)	(9,2)	(19,4)	(4,3)	(-14,2)	(11,1)	(2,4)	(-2,7)	(8,6)	(28,1)	
L2C -19>	(1,33)	(-8,7)	(9,3)	(0,127)	(5,4)	(13,9)	(24,4)	(2,10)	(-1,5)	(20,4)	(27,3)	(17,4)	(19,14)	(4,2)	(-10,4)	(6,1)	
L2C -18>	(-1,6)	(2,11)	(3,2)	(1,40)	(14,2)	(17,2)	(19,6)	(16,3)	(8,5)	(6,6)	(-4,1)	(22,1)	(18,6)	(4,13)	(-30,2)	(-6,2)	
L2C -17>	(0,14)	(2,1)	(11,3)	(18,7)	(1,33)	(15,5)	(17,4)	(22,3)	(5,5)	(25,2)	(-22,2)	(16,4)	(4,2)	(-13,2)	(21,3)	(12,4)	
L2C -16>	(1,52)	(0,13)	(-3,8)	(17,6)	(2,6)	(12,4)	(-2,8)	(8,2)	(19,1)	(15,5)	(18,2)	(31,1)	(-1,10)	(10,6)	(-21,1)	(7,7)	
L2C -15>	(6,6)	(39,1)	(-1,18)	(1,39)	(2,7)	(18,4)	(-2,7)	(13,7)	(0,7)	(-11,4)	(-17,2)	(17,3)	(-3,4)	(16,17)	(14,4)	(21,2)	
L2C -14>	(-1,14)	(1,38)	(10,4)	(8,5)	(13,9)	(16,5)	(5,6)	(21,1)	(-3,3)	(3,6)	(15,6)	(-41,2)	(4,6)	(-13,2)	(12,6)	(-20,3)	
L2C -13>	(3,11)	(-2,3)	(1,40)	(0,34)	(21,5)	(14,6)	(9,7)	(-1,12)	(8,7)	(2,5)	(-50,1)	(7,2)	(12,5)	(5,2)	(-8,6)	(11,5)	
L2C -12>	(1,74)	(10,1)	(21,3)	(33,2)	(-8,5)	(-1,8)	(5,6)	(11,10)	(15,4)	(14,4)	(-3,2)	(26,2)	(8,10)	(7,4)	(13,14)	(9,8)	
L2C -11>	(1,61)	(-9,1)	(3,6)	(6,8)	(4,6)	(-8,3)	(-6,3)	(-1,8)	(17,3)	(10,20)	(12,17)	(5,6)	(13,3)	(21,5)	(41,2)	(2,6)	
L2C -10>	(6,8)	(27,4)	(1,91)	(0,15)	(8,34)	(2,11)	(-1,16)	(7,7)	(11,7)	(-24,2)	(-35,3)	(50,2)	(-4,2)	(5,4)	(-17,3)	(-5,1)	
L2C -9>	(1,69)	(9,115)	(-4,6)	(8,22)	(3,6)	(14,4)	(10,20)	(-1,20)	(-11,5)	(41,5)	(-18,1)	(11,17)	(-5,3)	(31,2)	(2,5)	(0,2)	
L2C -8>	(1,54)	(9,17)	(-8,4)	(2,12)	(7,11)	(-1,21)	(4,6)	(27,23)	(10,2)	(25,13)	(15,3)	(0,14)	(-10,3)	(16,5)	(8,247)	(3,7)	
L2C -7>	(1,75)	(9,7)	(2,20)	(8,36)	(21,2)	(-2,4)	(-1,28)	(-3,6)	(-4,7)	(3,8)	(31,2)	(17,3)	(4,8)	(-5,7)	(6,3)	(23,1)	
L2C -6>	(1,75)	(7,44)	(-5,1)	(21,9)	(4,11)	(12,5)	(2,39)	(-11,5)	(5,23)	(10,5)	(-12,5)	(-8,2)	(-14,2)	(8,20)	(-1,22)	(-13,2)	
L2C -5>	(6,195)	(-2,3)	(8,2)	(2,5)	(-5,1)	(-58,1)	(1,64)	(-9,1)	(17,1)	(0,8)	(-1,9)	(7,14)	(20,1)	(3,4)	(14,2)	(-3,1)	
L2C -4>	(1,176)	(-1,61)	(2,69)	(15,1)	(22,4)	(3,62)	(8,13)	(0,24)	(-4,4)	(5,78)	(-10,5)	(-2,11)	(6,43)	(9,12)	(4,14)	(7,24)	
L2C -3>	(1,226)	(5,91)	(-4,8)	(2,86)	(7,14)	(-14,4)	(6,19)	(-1,53)	(12,5)	(4,94)	(-28,4)	(-6,6)	(-2,7)	(-16,6)	(-3,9)	(3,1)	
L2C -2>	(-1,24)	(3,113)	(1,141)	(-18,3)	(-2,5)	(6,5)	(5,58)	(-8,9)	(4,24)	(2,57)	(-19,6)	(-9,7)	(-35,1)	(21,2)	(-4,3)	(0,99)	
L2C -1>	(18,2)	(-61,1)	(-1,2)	(2,204)	(0,1)	(1,23)	(20,2)	(-62,14)	(5,7)	(3,23)	(-28,1)	(-11,1)	(-2,2)	(-50,1)	(9,1)	(-22,1)	
L2C 0>	(1,6)	(0,179)	(19,1)	(-28,1)	(-3,1)	(21,3)	(12,0)	(-9,2)	(4,0)	(2,11)	(13,0)	(5,0)	(-1,1)	(-8,2)	(-23,0)	(7,0)	
L2C 1>	(-60,0)	(1,163)	(7,0)	(6,1)	(2,10)	(8,0)	(3,1)	(-5,0)	(13,0)	(-7,0)	(-8,0)	(-61,0)	(4,0)	(5,0)	(-3,0)	(-63,1)	
L2C 2>	(3,6)	(1,231)	(32,1)	(2,44)	(4,16)	(-58,1)	(-62,0)	(-5,1)	(19,1)	(6,0)	(-1,19)	(-20,0)	(-63,3)	(-15,0)	(-2,2)	(26,0)	
L2C 3>	(4,11)	(-11,5)	(1,228)	(-3,2)	(-7,1)	(3,12)	(2,53)	(-2,1)	(-59,0)	(-12,0)	(18,0)	(-63,3)	(-62,0)	(-5,0)	(-1,3)	(5,3)	
L2C 4>	(1,173)	(12,1)	(2,52)	(-3,2)	(4,11)	(-1,15)	(3,19)	(-4,1)	(-25,1)	(-63,4)	(-23,0)	(-56,0)	(-62,2)	(-61,1)	(5,17)	(-60,1)	
L2C 5>	(1,141)	(-60,10)	(2,28)	(-14,1)	(-4,10)	(-28,3)	(-59,5)	(-6,3)	(9,13)	(-63,17)	(-62,7)	(-61,24)	(-57,4)	(14,3)	(4,177)	(5,188)	
L2C 6>	(1,159)	(-63,2)	(-5,183)	(4,4)	(6,14)	(-4,2)	(5,3)	(-3,2)	(-11,2)	(3,1)	(-7,3)	(-1,10)	(-26,1)	(2,17)	(19,2)	(-10,2)	
L2C 7>	(1,160)	(-14,5)	(0,7)	(-6,23)	(-1,68)	(2,21)	(-9,8)	(-4,8)	(6,18)	(8,5)	(-2,6)	(-16,9)	(7,4)	(-12,1)	(3,13)	(10,3)	
L2C 8>	(5,8)	(2,33)	(1,172)	(-8,61)	(-10,16)	(-1,38)	(13,1)	(-7,23)	(-3,7)	(-28,7)	(-17,7)	(19,6)	(-2,9)	(12,4)	(-5,41)	(0,222)	
L2C 9>	(1,87)	(-8,27)	(6,9)	(0,91)	(4,8)	(8,5)	(-1,23)	(-9,9)	(-7,8)	(2,27)	(-11,5)	(-5,45)	(5,66)	(-13,7)	(15,1)	(16,6)	
L2C 10>	(4,33)	(-5,40)	(1,59)	(-8,9)	(-4,8)	(-46,1)	(8,6)	(-10,22)	(-23,4)	(-2,10)	(6,5)	(-11,6)	(0,7)	(5,37)	(3,5)	(15,6)	
L2C 11>	(-2,8)	(-14,4)	(-5,18)	(-19,3)	(1,92)	(4,10)	(2,24)	(-1,16)	(3,1)	(-34,3)	(-15,4)	(-9,6)	(-4,6)	(-16,2)	(-10,7)	(-11,8)	
L2C 12>	(1,57)	(-2,6)	(-1,26)	(3,6)	(-21,4)	(-11,10)	(-5,10)	(7,5)	(2,20)	(-8,3)	(5,3)	(-12,1)	(-3,7)	(-16,4)	(4,5)	(-17,4)	
L2C 13>	(-26,1)	(10,2)	(-22,4)	(22,2)	(-16,3)	(8,3)	(1,39)	(-5,11)	(-1,12)	(-2,6)	(2,9)	(-14,3)	(-6,2)	(-15,2)	(-13,32)	(-12,26)	
L2C 14>	(-16,3)	(1,64)	(-1,35)	(-43,1)	(-19,3)	(5,16)	(-13,14)	(2,9)	(-14,4)	(-15,5)	(-6,5)	(-8,5)	(-18,4)	(-4,6)	(-2,2)	(-9,4)	
L2C 15>	(1,52)	(-1,13)	(-14,11)	(-15,16)	(6,4)	(-12,5)	(-21,5)	(17,3)	(2,6)	(-16,3)	(-17,4)	(-34,1)	(-39,2)	(-5,2)	(-29,1)	(-3,6)	
L2C 16>	(-1,12)	(1,53)	(-5,19)	(7,2)	(-15,13)	(2,9)	(-17,4)	(-16,13)	(-2,4)	(-9,5)	(-11,4)	(-3,3)	(-18,5)	(-7,4)	(-12,3)	(-44,1)	
L2C 17>	(-5,15)	(-20,2)	(-8,2)	(-14,2)	(-1,7)	(-11,3)	(-18,4)	(1,51)	(-15,2)	(2,36)	(-3,4)	(-21,1)	(-7,2)	(-12,1)	(-22,1)	(-17,13)	
L2C 18>	(-1,8)	(1,32)	(-21,2)	(5,4)	(2,11)	(-16,2)	(-20,2)	(-17,10)	(-14,6)	(3,6)	(-6,4)	(-5,8)	(-19,9)	(16,1)	(-9,2)	(-2,5)	
L2C 19>	(1,38)	(2,14)	(-21,9)	(-1,3)	(-39,3)	(-18,11)	(-19,76)	(4,1)	(27,4)	(3,3)	(-14,5)	(-5,7)	(10,3)	(5,3)	(-20,2)	(-11,2)	
L2C 20>	(1,24)	(-5,2)	(6,3)	(-1,2)	(30,2)	(-16,4)	(-2,4)	(-18,2)	(3,4)	(-25,2)	(-19,5)	(-10,1)	(15,1)	(-11,4)	(-8,3)	(-7,2)	
L2C 21>	(-22,6)	(1,19)	(4,12)	(-5,2)	(-20,7)	(2,2)	(-21,68)	(-2,6)	(-14,1)	(-16,2)	(-6,1)	(6,2)	(3,5)	(5,2)	(-10,4)	(9,1)	
L2C 22>	(6,2)	(-23,2)	(1,13)	(-14,1)	(-13,5)	(-16,2)	(-1,8)	(-25,2)	(-40,1)	(-29,1)	(-7,2)	(-27,3)	(-39,2)	(-32,2)	(-30,3)	(19,1)	
L2C 23>	(4,5)	(-1,4)	(1,9)	(-15,5)	(-20,4)	(-21,1)	(30,1)	(17,1)	(-16,1)	(-27,1)	(-34,3)	(-57,1)	(23,1)	(8,2)	(-28,3)	(5,4)	
L2C 24>	(-18,3)	(-25,2)	(-15,1)	(1,28)	(-20,2)	(-56,2)	(3,3)	(-6,2)	(-4,2)	(-24,5)	(-23,3)	(34,1)	(4,7)	(6,1)	(2,4)	(-16,1)	
L2C 25>	(1,15)	(0,3)	(6,2)	(-15,4)	(23,2)	(-1,4)	(-37,1)	(22,1)	(-24,4)	(-21,2)	(10,1)	(-17,5)	(2,21)	(29,1)	(27,1)	(-25,6)	
L2C 26>	(1,22)	(-25,3)	(-12,2)	(3,3)	(2,4)	(-41,2)	(6,2)	(14,1)	(-33,1)	(-6,2)	(-32,1)	(-16,2)	(4,5)	(-8,1)	(-22,2)	(-2,1)	
L2C 27>	(-27,10)	(-18,3)	(1,30)	(-8,1)	(2,5)	(-29,2)	(5,1)	(-28,2)	(-4,4)	(-46,2)	(-19,27)	(-14,1)	(-31,2)	(11,1)	(-20,1)	(-17,4)	
L2C 28>	(-20,3)	(-1,5)	(-23,4)	(1,14)	(-26,2)	(-27,3)	(-6,1)	(-42,1)	(0,1)	(-47,1)	(-15,2)	(-29,2)	(20,1)	(-51,1)	(-9,2)	(-7,1)	
L2C 29>	(7,2)	(1,5)	(-25,2)	(-20,2)	(3,2)	(-21,3)	(-2,4)	(14,2)	(-57,2)	(-30,3)	(-56,2)	(-5,2)	(-37,2)	(-22,2)	(-19,1)	(-8,2)	
L2C 30>	(-19,1)	(7,2)	(1,19)	(-5,1)	(2,2)	(-39,2)	(-9,9)	(-21,6)	(-10,1)	(-34,1)	(-4,2)	(-29,4)	(-25,1)	(-3,2)	(-33,3)	(-6,1)	
L2C 31>	(-33,2)	(5,2)	(-46,2)	(-44,1)	(3,2)	(-36,1)	(-1,3)	(1,14)	(-55,1)	(-23,2)	(-5,3)	(-30,5)	(-2,3)	(-38,2)	(-7,2)	(-19,1)	
L2C 32>	(1,7)	(-1,3)	(4,2)	(-28,3)	(8,2)	(-56,2)	(-20,3)	(3,1)	(-39,1)	(-46,1)	(-2,2)	(-25,3)	(2,2)	(-37,1)	(-33,1)	(18,1)	
L2C 33>	(-33,4)	(1,11)	(-9,3)	(2,4)	(-6,3)	(-32,1)	(3,2)	(-8,1)	(-4,2)	(8,1)	(-1,6)	(-25,2)	(-18,1)	(-28,8)	(-51,1)	(0,6)	
L2C 34>	(2,5)	(18,1)	(-52,2)	(-10,2)	(9,3)	(0,3)	(-28,2)	(1,11)	(-4,1)	(-29,2)	(-19,2)	(-5,1)	(-1,4)	(-38,2)	(-32,2)	(-31,1)	
L2C 35>	(1,17)	(-37,1)	(-1,4)	(12,2)	(17,1)	(-7,1)	(-2,3)	(-26,1)	(-41,1)	(2,1)	(-4,2)	(-16,1)	(-6,1)	(7,3)	(19,1)	(-22,1)	
L2C 36>	(7,2)	(1,14)	(-4,3)	(-34,3)	(-7,2)	(2,4)	(-15,1)	(-35,4)	(-3,2)	(-23,1)	(-36,2)	(18,1)	(20,1)	(-14,1)	(-2,2)	(5,1)	
L2C 37>	(17,1)	(-26,3)	(9,1)	(-48,2)	(-40,1)	(-22,1)	(-16,1)	(0,1)	(13,1)	(1,6)	(-5,3)	(-10,1)	(-33,2)	(-27,1)	(3,2)	(-6,2)	
L2C 38>	(15,1)	(-18,2)	(-39,2)	(-29,1)	(-36,1)	(4,2)	(1,5)	(-21,1)	(20,2)	(8,1)	(2,2)	(-47,2)	(-27,2)	(-35,2)	(-26,1)	(-22,1)	
L2C 39>	(-24,1)	(-26,2)	(-47,1)	(-56,1)	(-25,1)	(-1,3)	(-41,2)	(-27,2)	(6,2)	(-31,1)	(1,4)	(4,1)	(-20,2)	(-21,1)	(-2,1)	(-28,1)	
L2C 40>	(5,3)	(1,6)	(-33,1)	(-34,1)	(-4,2)	(2,2)	(12,1)	(-32,1)	(-43,1)	(-3,1)	(13,1)	(-7,1)	(-14,1)	(-6,1)	(-38,1)	(-47,1)	
L2C 41>	(2,2)	(-22,2)	(-1,3)	(-34,1)	(1,7)	(-10,1)	(-2,2)	(-11,1)	(-35,1)	(-23,1)	(-40,2)	(-3,2)	(8,1)	(-29,2)	(-45,2)	(-30,1)	
L2C 42>	(1,8)	(-47,3)	(-31,2)	(2,3)	(-3,2)	(-39,1)	(-40,2)	(-2,1)	(-4,1)	(-1,3)	(-46,3)	(-24,2)	(-8,1)	(8,2)	(-13,1)	(-43,1)	
L2C 43>	(4,2)	(2,4)	(-44,2)	(-10,1)	(1,7)	(-24,2)	(-34,2)	(-46,2)	(-29,1)	(-13,1)	(-37,1)	(3,3)	(-3,1)	(-21,1)	(-2,1)	(-33,1)	
L2C 44>	(-38,2)	(-2,1)	(1,2)	(-45,3)	(-43,1)	(-50,1)	(-47,1)	(-3,1)	(-18,1)	(-49,1)	(-1,1)	(-35,1)	(-22,1)	(-36,1)	(1,0)	(1,0)	
L2C 45>	(-17,1)	(-45,2)	(-33,3)	(1,6)	(7,1)	(-44,1)	(-18,1)	(-24,1)	(3,2)	(2,2)	(-37,1)	(-35,2)	(-1,1)	(-10,2)	(-36,2)	(-9,1)	
L2C 46>	(-41,1)	(1,7)	(-12,3)	(-17,1)	(-51,1)	(2,4)	(-14,1)	(-36,1)	(-8,1)	(4,2)	(-1,2)	(-13,1)	(6,2)	(-47,1)	(-45,1)	(-30,1)	
L2C 47>	(-5,1)	(-49,1)	(1,10)	(-14,2)	(-8,2)	(-53,1)	(-21,1)	(-9,2)	(-1,4)	(2,2)	(-2,1)	(-51,1)	(-36,2)	(-7,1)	(-38,1)	(-56,1)	
L2C 48>	(1,7)	(-42,3)	(4,2)	(-49,1)	(-47,2)	(-31,1)	(-27,1)	(-8,1)	(-30,1)	(-2,1)	(-10,1)	(-6,1)	(2,2)	(-13,2)	(-33,1)	(-5,1)	
L2C 49>	(-8,2)	(-22,2)	(5,2)	(-5,1)	(-31,1)	(-1,1)	(-48,4)	(8,1)	(-9,1)	(1,4)	(2,2)	(-10,2)	(-6,1)	(-16,1)	(-41,2)	(-49,2)	
L2C 50>	(-6,1)	(-33,1)	(-31,3)	(-36,1)	(-40,1)	(-28,1)	(-5,3)	(-21,1)	(-12,1)	(-49,2)	(-51,1)	(-1,1)	(-16,2)	(-26,1)	(-3,1)	(1,2)	
L2C 51>	(5,1)	(-14,1)	(-4,1)	(-53,1)	(2,1)	(-2,1)	(-10,1)	(-45,1)	(-23,1)	(1,4)	(-54,1)	(-5,1)	(-1,1)	(-26,1)	(-55,1)	(-48,1)	
L2C 52>	(-50,1)	(-36,1)	(-2,1)	(-22,1)	(-6,1)	(5,1)	(-21,1)	(-46,1)	(-11,1)	(1,4)	(-41,1)	(-45,1)	(-29,1)	(-44,1)	(1,0)	(1,0)	
L2C 53>	(1,3)	(2,1)	(-22,2)	(-56,1)	(-33,1)	(-30,4)	(-18,2)	(-11,1)	(-1,2)	(-42,1)	(-45,2)	(-44,1)	(-21,1)	(1,0)	(1,0)	(1,0)	
L2C 54>	(-7,1)	(-24,1)	(1,4)	(-14,1)	(-31,1)	(-28,1)	(-22,1)	(5,1)	(-56,1)	(-1,1)	(-58,1)	(1,0)	(1,0)	(1,0)	(1,0)	(1,0)	
L2C 55>	(-25,1)	(-39,1)	(-30,2)	(-44,1)	(-46,1)	(1,0)	(1,0)	(1,0)	(1,0)	(1,0)	(1,0)	(1,0)	(1,0)	(1,0)	(1,0)	(1,0)	
L2C 56>	(-20,1)	(-5,1)	(-17,1)	(-41,1)	(-58,1)	(-26,1)	(-51,1)	(-8,1)	(-10,1)	(-50,1)	(-6,1)	(-52,1)	(-61,1)	(1,0)	(1,0)	(1,0)	
L2C 57>	(-20,1)	(-2,1)	(-23,1)	(-19,1)	(-33,1)	(-36,1)	(-37,1)	(-16,1)	(1,0)	(1,0)	(1,0)	(1,0)	(1,0)	(1,0)	(1,0)	(1,0)	
L2C 58>	(-1,1)	(1,2)	(1,0)	(1,0)	(1,0)	(1,0)	(1,0)	(1,0)	(1,0)	(1,0)	(1,0)	(1,0)	(1,0)	(1,0)	(1,0)	(1,0)	
L2C 59>	(-49,1)	(-61,1)	(-63,1)	(-25,1)	(-50,1)	(1,0)	(1,0)	(1,0)	(1,0)	(1,0)	(1,0)	(1,0)	(1,0)	(1,0)	(1,0)	(1,0)	
L2C 60>	(-49,1)	(-16,1)	(1,0)	(1,0)	(1,0)	(1,0)	(1,0)	(1,0)	(1,0)	(1,0)	(1,0)	(1,0)	(1,0)	(1,0)	(1,0)	(1,0)	
L2C 61>	(1,0)	(1,0)	(1,0)	(1,0)	(1,0)	(1,0)	(1,0)	(1,0)	(1,0)	(1,0)	(1,0)	(1,0)	(1,0)	(1,0)	(1,0)	(1,0)	
L2C 62>	(1,0)	(1,0)	(1,0)	(1,0)	(1,0)	(1,0)	(1,0)	(1,0)	(1,0)	(1,0)	(1,0)	(1,0)	(1,0)	(1,0)	(1,0)	(1,0)	
L2C 63>	(1,0)	(1,0)	(1,0)	(1,0)	(1,0)	(1,0)	(1,0)	(1,0)	(1,0)	(1,0)	(1,0)	(1,0)	(1,0)	(1,0)	(1,0)	(1,0)	

DRAM Statistics
 CHANNEL 0
 RQ ROW_BUFFER_HIT:     133139  ROW_BUFFER_MISS:     226005
 DBUS_CONGESTED:     243365
 WQ ROW_BUFFER_HIT:      17566  ROW_BUFFER_MISS:      77499  FULL:          0

 AVG_CONGESTED_CYCLE: 6
