
*** ChampSim Multicore Out-of-Order Simulator ***

Warmup Instructions: 1000000
Simulation Instructions: 10000000
Number of CPUs: 4
LLC sets: 8192
LLC ways: 16
Off-chip DRAM Size: 4096 MB Channels: 1 Width: 64-bit Data Rate: 3200 MT/s

CPU 0 runs /home/virtualcse/Data-Prefetching/ChampSim/dpc3_traces/631.deepsjeng_s-928B.champsimtrace.xz
CPU 1 runs /home/virtualcse/Data-Prefetching/ChampSim/dpc3_traces/649.fotonik3d_s-8225B.champsimtrace.xz
CPU 2 runs /home/virtualcse/Data-Prefetching/ChampSim/dpc3_traces/621.wrf_s-6673B.champsimtrace.xz
CPU 3 runs /home/virtualcse/Data-Prefetching/ChampSim/dpc3_traces/641.leela_s-334B.champsimtrace.xz
Ultra pref. initializing...
Ultra pref. initialized
Ultra pref. initializing...
Ultra pref. initialized
Ultra pref. initializing...
Ultra pref. initialized
Ultra pref. initializing...
Ultra pref. initialized
Ultra pref. initializing...
Ultra pref. initialized
Ultra pref. initializing...
Ultra pref. initialized
Ultra pref. initializing...
Ultra pref. initialized
Ultra pref. initializing...
Ultra pref. initialized

Warmup complete CPU 0 instructions: 1091901 cycles: 418755 (Simulation time: 0 hr 0 min 9 sec) 
Warmup complete CPU 1 instructions: 1034723 cycles: 418755 (Simulation time: 0 hr 0 min 9 sec) 
Warmup complete CPU 2 instructions: 1166548 cycles: 418755 (Simulation time: 0 hr 0 min 9 sec) 
Warmup complete CPU 3 instructions: 1000002 cycles: 418755 (Simulation time: 0 hr 0 min 9 sec) 

Heartbeat CPU 2 instructions: 10000001 cycles: 5693110 heartbeat IPC: 1.75651 cumulative IPC: 1.67479 (Simulation time: 0 hr 0 min 59 sec) 
Heartbeat CPU 1 instructions: 10000003 cycles: 6112164 heartbeat IPC: 1.63608 cumulative IPC: 1.57468 (Simulation time: 0 hr 1 min 3 sec) 
Finished CPU 2 instructions: 10000001 cycles: 6140410 cumulative IPC: 1.62856 (Simulation time: 0 hr 1 min 6 sec) 
Finished CPU 1 instructions: 10000002 cycles: 6800635 cumulative IPC: 1.47045 (Simulation time: 0 hr 1 min 11 sec) 
Heartbeat CPU 0 instructions: 10000003 cycles: 8386344 heartbeat IPC: 1.19242 cumulative IPC: 1.11804 (Simulation time: 0 hr 1 min 21 sec) 
Finished CPU 0 instructions: 10000000 cycles: 8979992 cumulative IPC: 1.11359 (Simulation time: 0 hr 1 min 30 sec) 
Heartbeat CPU 3 instructions: 10000002 cycles: 10327930 heartbeat IPC: 0.968248 cumulative IPC: 0.908249 (Simulation time: 0 hr 1 min 36 sec) 
Finished CPU 3 instructions: 10000000 cycles: 11016746 cumulative IPC: 0.907709 (Simulation time: 0 hr 1 min 43 sec) 

CPU 0 Branch Prediction Accuracy: 91.4778% MPKI: 9.38812 Average ROB Occupancy at Mispredict: 45.4423

CPU 1 Branch Prediction Accuracy: 99.9751% MPKI: 0.00436043 Average ROB Occupancy at Mispredict: 343.177

CPU 2 Branch Prediction Accuracy: 99.212% MPKI: 0.422948 Average ROB Occupancy at Mispredict: 177.277

CPU 3 Branch Prediction Accuracy: 86.1527% MPKI: 16.139 Average ROB Occupancy at Mispredict: 30.6573

ChampSim completed all CPUs

Total Simulation Statistics (not including warmup)

CPU 0 cumulative IPC: 1.10174 instructions: 12137595 cycles: 11016746
L1D TOTAL     ACCESS:    5271297  HIT:    5246907  MISS:      24390
L1D LOAD      ACCESS:    2127468  HIT:    2120950  MISS:       6518
L1D RFO       ACCESS:    1427136  HIT:    1423489  MISS:       3647
L1D PREFETCH  ACCESS:    1716693  HIT:    1702468  MISS:      14225
L1D WRITEBACK ACCESS:          0  HIT:          0  MISS:          0
L1I TOTAL     ACCESS:    1341073  HIT:    1330635  MISS:      10438
L1I LOAD      ACCESS:    1341073  HIT:    1330635  MISS:      10438
L1I RFO       ACCESS:          0  HIT:          0  MISS:          0
L1I PREFETCH  ACCESS:          0  HIT:          0  MISS:          0
L1I WRITEBACK ACCESS:          0  HIT:          0  MISS:          0
L2C TOTAL     ACCESS:     115681  HIT:     100271  MISS:      15410
L2C LOAD      ACCESS:      16812  HIT:      14099  MISS:       2713
L2C RFO       ACCESS:       3602  HIT:       3366  MISS:        236
L2C PREFETCH  ACCESS:      87150  HIT:      74701  MISS:      12449
L2C WRITEBACK ACCESS:       8117  HIT:       8105  MISS:         12

L1D -512>	(6,73)	(38,39)	(7,25)	(0,80)	(8,6)	(1,53)	(3,84)	(4,120)	(2,95)	(263,4)	(5,18)	(75,5)	(-6,1)	(37,46)	(112,4)	(113,5)	
L1D -511>	(1,93)	(3,19)	(2,67)	(0,15)	(4,21)	(6,7)	(8,2)	(7,1)	(1,0)	(1,0)	(1,0)	(1,0)	(1,0)	(1,0)	(1,0)	(1,0)	
L1D -510>	(2,103)	(1,12)	(-1,3)	(0,14)	(4,35)	(3,11)	(6,13)	(7,0)	(5,2)	(1,0)	(1,0)	(1,0)	(1,0)	(1,0)	(1,0)	(1,0)	
L1D -509>	(-1,26)	(2,53)	(4,10)	(8,4)	(5,5)	(7,2)	(3,9)	(6,7)	(0,4)	(1,7)	(1,0)	(1,0)	(1,0)	(1,0)	(1,0)	(1,0)	
L1D -508>	(1,5)	(2,80)	(6,5)	(3,8)	(4,16)	(0,3)	(7,0)	(-1,2)	(5,1)	(-2,7)	(1,0)	(1,0)	(1,0)	(1,0)	(1,0)	(1,0)	
L1D -507>	(2,21)	(1,9)	(-1,4)	(4,8)	(3,4)	(42,1)	(1,0)	(1,0)	(1,0)	(1,0)	(1,0)	(1,0)	(1,0)	(1,0)	(1,0)	(1,0)	
L1D -506>	(2,63)	(4,15)	(1,12)	(0,1)	(-1,2)	(3,5)	(-2,3)	(197,1)	(6,2)	(8,7)	(1,0)	(1,0)	(1,0)	(1,0)	(1,0)	(1,0)	
L1D -505>	(-1,5)	(2,12)	(3,1)	(1,5)	(-6,1)	(6,1)	(8,1)	(4,1)	(9,1)	(1,0)	(1,0)	(1,0)	(1,0)	(1,0)	(1,0)	(1,0)	
L1D -504>	(-1,8)	(6,2)	(2,23)	(9,1)	(3,1)	(4,6)	(-4,1)	(8,1)	(1,0)	(1,0)	(1,0)	(1,0)	(1,0)	(1,0)	(1,0)	(1,0)	
L1D -503>	(-1,6)	(2,7)	(-7,1)	(1,1)	(1,0)	(1,0)	(1,0)	(1,0)	(1,0)	(1,0)	(1,0)	(1,0)	(1,0)	(1,0)	(1,0)	(1,0)	
L1D -502>	(96,1)	(1,0)	(1,0)	(1,0)	(1,0)	(1,0)	(1,0)	(1,0)	(1,0)	(1,0)	(1,0)	(1,0)	(1,0)	(1,0)	(1,0)	(1,0)	
L1D -501>	(3,1)	(2,1)	(1,0)	(1,0)	(1,0)	(1,0)	(1,0)	(1,0)	(1,0)	(1,0)	(1,0)	(1,0)	(1,0)	(1,0)	(1,0)	(1,0)	
L1D -500>	(1,0)	(1,0)	(1,0)	(1,0)	(1,0)	(1,0)	(1,0)	(1,0)	(1,0)	(1,0)	(1,0)	(1,0)	(1,0)	(1,0)	(1,0)	(1,0)	
L1D -499>	(4,2)	(3,1)	(2,1)	(1,0)	(1,0)	(1,0)	(1,0)	(1,0)	(1,0)	(1,0)	(1,0)	(1,0)	(1,0)	(1,0)	(1,0)	(1,0)	
L1D -498>	(4,3)	(6,2)	(3,1)	(2,4)	(406,1)	(1,0)	(1,0)	(1,0)	(1,0)	(1,0)	(1,0)	(1,0)	(1,0)	(1,0)	(1,0)	(1,0)	
L1D -497>	(2,3)	(8,1)	(4,1)	(1,0)	(1,0)	(1,0)	(1,0)	(1,0)	(1,0)	(1,0)	(1,0)	(1,0)	(1,0)	(1,0)	(1,0)	(1,0)	
L1D -496>	(-1,1)	(2,5)	(4,1)	(1,1)	(1,0)	(1,0)	(1,0)	(1,0)	(1,0)	(1,0)	(1,0)	(1,0)	(1,0)	(1,0)	(1,0)	(1,0)	
L1D -495>	(-1,1)	(1,1)	(2,5)	(4,1)	(1,0)	(1,0)	(1,0)	(1,0)	(1,0)	(1,0)	(1,0)	(1,0)	(1,0)	(1,0)	(1,0)	(1,0)	
L1D -494>	(4,1)	(0,1)	(1,0)	(1,0)	(1,0)	(1,0)	(1,0)	(1,0)	(1,0)	(1,0)	(1,0)	(1,0)	(1,0)	(1,0)	(1,0)	(1,0)	
L1D -493>	(2,3)	(6,1)	(1,0)	(1,0)	(1,0)	(1,0)	(1,0)	(1,0)	(1,0)	(1,0)	(1,0)	(1,0)	(1,0)	(1,0)	(1,0)	(1,0)	
L1D -492>	(4,3)	(2,3)	(5,1)	(1,0)	(1,0)	(1,0)	(1,0)	(1,0)	(1,0)	(1,0)	(1,0)	(1,0)	(1,0)	(1,0)	(1,0)	(1,0)	
L1D -491>	(3,1)	(4,1)	(2,2)	(1,1)	(1,0)	(1,0)	(1,0)	(1,0)	(1,0)	(1,0)	(1,0)	(1,0)	(1,0)	(1,0)	(1,0)	(1,0)	
L1D -490>	(0,1)	(-1,1)	(2,4)	(1,1)	(1,0)	(1,0)	(1,0)	(1,0)	(1,0)	(1,0)	(1,0)	(1,0)	(1,0)	(1,0)	(1,0)	(1,0)	
L1D -489>	(-1,3)	(7,1)	(2,1)	(75,11)	(38,26)	(150,3)	(37,22)	(225,3)	(263,2)	(112,1)	(113,1)	(300,1)	(187,1)	(3,1)	(1,0)	(1,0)	
L1D -488>	(2,4)	(1,1)	(1,0)	(1,0)	(1,0)	(1,0)	(1,0)	(1,0)	(1,0)	(1,0)	(1,0)	(1,0)	(1,0)	(1,0)	(1,0)	(1,0)	
L1D -487>	(1,0)	(1,0)	(1,0)	(1,0)	(1,0)	(1,0)	(1,0)	(1,0)	(1,0)	(1,0)	(1,0)	(1,0)	(1,0)	(1,0)	(1,0)	(1,0)	
L1D -486>	(2,1)	(0,2)	(80,1)	(4,1)	(37,1)	(1,0)	(1,0)	(1,0)	(1,0)	(1,0)	(1,0)	(1,0)	(1,0)	(1,0)	(1,0)	(1,0)	
L1D -485>	(1,1)	(2,2)	(4,1)	(1,0)	(1,0)	(1,0)	(1,0)	(1,0)	(1,0)	(1,0)	(1,0)	(1,0)	(1,0)	(1,0)	(1,0)	(1,0)	
L1D -484>	(2,4)	(4,1)	(0,1)	(1,0)	(1,0)	(1,0)	(1,0)	(1,0)	(1,0)	(1,0)	(1,0)	(1,0)	(1,0)	(1,0)	(1,0)	(1,0)	
L1D -483>	(5,1)	(3,1)	(4,1)	(1,1)	(1,0)	(1,0)	(1,0)	(1,0)	(1,0)	(1,0)	(1,0)	(1,0)	(1,0)	(1,0)	(1,0)	(1,0)	
L1D -482>	(2,2)	(4,2)	(38,1)	(0,1)	(1,0)	(1,0)	(1,0)	(1,0)	(1,0)	(1,0)	(1,0)	(1,0)	(1,0)	(1,0)	(1,0)	(1,0)	
L1D -481>	(123,1)	(-1,3)	(3,1)	(2,1)	(1,0)	(1,0)	(1,0)	(1,0)	(1,0)	(1,0)	(1,0)	(1,0)	(1,0)	(1,0)	(1,0)	(1,0)	
L1D -480>	(0,1)	(1,1)	(456,15)	(464,4)	(480,3)	(448,6)	(2,5)	(4,2)	(1,0)	(1,0)	(1,0)	(1,0)	(1,0)	(1,0)	(1,0)	(1,0)	
L1D -479>	(270,2)	(-1,1)	(4,1)	(2,1)	(3,1)	(1,0)	(1,0)	(1,0)	(1,0)	(1,0)	(1,0)	(1,0)	(1,0)	(1,0)	(1,0)	(1,0)	
L1D -478>	(4,1)	(121,1)	(498,1)	(400,2)	(2,1)	(1,0)	(1,0)	(1,0)	(1,0)	(1,0)	(1,0)	(1,0)	(1,0)	(1,0)	(1,0)	(1,0)	
L1D -477>	(0,1)	(6,1)	(9,1)	(1,0)	(1,0)	(1,0)	(1,0)	(1,0)	(1,0)	(1,0)	(1,0)	(1,0)	(1,0)	(1,0)	(1,0)	(1,0)	
L1D -476>	(2,5)	(1,1)	(340,1)	(183,1)	(4,2)	(1,0)	(1,0)	(1,0)	(1,0)	(1,0)	(1,0)	(1,0)	(1,0)	(1,0)	(1,0)	(1,0)	
L1D -475>	(0,1)	(475,3)	(8,1)	(411,1)	(3,1)	(4,1)	(2,1)	(1,0)	(1,0)	(1,0)	(1,0)	(1,0)	(1,0)	(1,0)	(1,0)	(1,0)	
L1D -474>	(115,3)	(2,5)	(62,1)	(0,1)	(129,1)	(-1,1)	(197,1)	(1,0)	(1,0)	(1,0)	(1,0)	(1,0)	(1,0)	(1,0)	(1,0)	(1,0)	
L1D -473>	(-1,1)	(2,2)	(256,1)	(1,0)	(1,0)	(1,0)	(1,0)	(1,0)	(1,0)	(1,0)	(1,0)	(1,0)	(1,0)	(1,0)	(1,0)	(1,0)	
L1D -472>	(113,2)	(98,3)	(-8,1)	(2,4)	(63,1)	(1,1)	(128,1)	(104,1)	(1,0)	(1,0)	(1,0)	(1,0)	(1,0)	(1,0)	(1,0)	(1,0)	
L1D -471>	(343,3)	(1,2)	(97,3)	(1,0)	(1,0)	(1,0)	(1,0)	(1,0)	(1,0)	(1,0)	(1,0)	(1,0)	(1,0)	(1,0)	(1,0)	(1,0)	
L1D -470>	(2,1)	(0,2)	(281,1)	(127,1)	(96,9)	(278,1)	(1,0)	(1,0)	(1,0)	(1,0)	(1,0)	(1,0)	(1,0)	(1,0)	(1,0)	(1,0)	
L1D -469>	(27,1)	(26,1)	(0,2)	(2,1)	(278,1)	(1,2)	(1,0)	(1,0)	(1,0)	(1,0)	(1,0)	(1,0)	(1,0)	(1,0)	(1,0)	(1,0)	
L1D -468>	(2,5)	(5,1)	(1,2)	(4,1)	(1,0)	(1,0)	(1,0)	(1,0)	(1,0)	(1,0)	(1,0)	(1,0)	(1,0)	(1,0)	(1,0)	(1,0)	
L1D -467>	(1,6)	(0,2)	(2,1)	(3,1)	(7,1)	(1,0)	(1,0)	(1,0)	(1,0)	(1,0)	(1,0)	(1,0)	(1,0)	(1,0)	(1,0)	(1,0)	
L1D -466>	(3,6)	(-1,1)	(330,31)	(2,3)	(4,3)	(42,1)	(254,3)	(6,1)	(10,1)	(1,0)	(1,0)	(1,0)	(1,0)	(1,0)	(1,0)	(1,0)	
L1D -465>	(122,1)	(0,2)	(114,1)	(120,1)	(-41,1)	(2,2)	(133,1)	(1,0)	(1,0)	(1,0)	(1,0)	(1,0)	(1,0)	(1,0)	(1,0)	(1,0)	
L1D -464>	(0,5)	(113,4)	(-42,2)	(132,1)	(41,1)	(448,4)	(1,0)	(1,0)	(1,0)	(1,0)	(1,0)	(1,0)	(1,0)	(1,0)	(1,0)	(1,0)	
L1D -463>	(131,4)	(2,1)	(-42,1)	(1,0)	(1,0)	(1,0)	(1,0)	(1,0)	(1,0)	(1,0)	(1,0)	(1,0)	(1,0)	(1,0)	(1,0)	(1,0)	
L1D -462>	(277,1)	(6,1)	(187,1)	(2,1)	(-42,1)	(104,1)	(1,0)	(1,0)	(1,0)	(1,0)	(1,0)	(1,0)	(1,0)	(1,0)	(1,0)	(1,0)	
L1D -461>	(1,0)	(1,0)	(1,0)	(1,0)	(1,0)	(1,0)	(1,0)	(1,0)	(1,0)	(1,0)	(1,0)	(1,0)	(1,0)	(1,0)	(1,0)	(1,0)	
L1D -460>	(0,2)	(78,1)	(-5,1)	(144,1)	(260,1)	(67,2)	(4,1)	(125,1)	(460,1)	(1,0)	(1,0)	(1,0)	(1,0)	(1,0)	(1,0)	(1,0)	
L1D -459>	(249,1)	(459,2)	(124,1)	(66,1)	(1,0)	(1,0)	(1,0)	(1,0)	(1,0)	(1,0)	(1,0)	(1,0)	(1,0)	(1,0)	(1,0)	(1,0)	
L1D -458>	(2,2)	(1,1)	(458,8)	(246,1)	(128,1)	(105,1)	(1,0)	(1,0)	(1,0)	(1,0)	(1,0)	(1,0)	(1,0)	(1,0)	(1,0)	(1,0)	
L1D -457>	(2,2)	(122,3)	(106,1)	(329,5)	(350,3)	(332,2)	(322,1)	(127,1)	(-42,1)	(1,0)	(1,0)	(1,0)	(1,0)	(1,0)	(1,0)	(1,0)	
L1D -456>	(8,3)	(113,1)	(0,3)	(219,2)	(4,3)	(16,1)	(260,2)	(448,30)	(-8,2)	(-42,1)	(464,1)	(82,1)	(1,0)	(1,0)	(1,0)	(1,0)	
L1D -455>	(104,5)	(274,1)	(1,0)	(1,0)	(1,0)	(1,0)	(1,0)	(1,0)	(1,0)	(1,0)	(1,0)	(1,0)	(1,0)	(1,0)	(1,0)	(1,0)	
L1D -454>	(251,1)	(247,10)	(6,1)	(267,1)	(295,1)	(80,5)	(25,1)	(-42,1)	(454,1)	(1,0)	(1,0)	(1,0)	(1,0)	(1,0)	(1,0)	(1,0)	
L1D -453>	(-1,1)	(453,10)	(0,1)	(287,1)	(279,1)	(1,0)	(1,0)	(1,0)	(1,0)	(1,0)	(1,0)	(1,0)	(1,0)	(1,0)	(1,0)	(1,0)	
L1D -452>	(4,2)	(-42,1)	(270,1)	(38,14)	(150,2)	(75,2)	(263,3)	(188,1)	(300,1)	(1,0)	(1,0)	(1,0)	(1,0)	(1,0)	(1,0)	(1,0)	
L1D -451>	(0,40)	(244,1)	(221,1)	(2,3)	(122,2)	(263,1)	(4,1)	(3,2)	(114,1)	(323,1)	(37,20)	(75,1)	(112,2)	(150,1)	(262,1)	(1,0)	
L1D -450>	(2,2)	(115,10)	(1,2)	(304,1)	(400,1)	(113,3)	(384,1)	(116,1)	(314,7)	(270,1)	(392,1)	(3,1)	(1,0)	(1,0)	(1,0)	(1,0)	
L1D -449>	(114,4)	(312,3)	(0,9)	(122,1)	(2,31)	(1,3)	(-42,1)	(3,1)	(1,0)	(1,0)	(1,0)	(1,0)	(1,0)	(1,0)	(1,0)	(1,0)	
L1D -448>	(113,9)	(122,4)	(0,45)	(-3,9)	(-42,2)	(121,7)	(384,22)	(416,17)	(112,17)	(432,8)	(448,98)	(480,40)	(464,3)	(1,1)	(424,2)	(456,5)	
L1D -447>	(319,7)	(447,9)	(-2,3)	(8,2)	(0,21)	(121,2)	(119,1)	(384,3)	(7,1)	(112,1)	(14,2)	(-45,6)	(1,0)	(1,0)	(1,0)	(1,0)	
L1D -446>	(446,1)	(4,2)	(319,2)	(114,9)	(318,1)	(0,3)	(459,1)	(1,0)	(1,0)	(1,0)	(1,0)	(1,0)	(1,0)	(1,0)	(1,0)	(1,0)	
L1D -445>	(113,6)	(319,1)	(445,1)	(112,1)	(3,1)	(114,1)	(1,0)	(1,0)	(1,0)	(1,0)	(1,0)	(1,0)	(1,0)	(1,0)	(1,0)	(1,0)	
L1D -444>	(443,1)	(0,6)	(2,2)	(4,1)	(112,2)	(144,2)	(93,1)	(67,3)	(260,6)	(252,1)	(-8,1)	(115,4)	(444,1)	(72,1)	(111,1)	(-45,1)	
L1D -443>	(226,1)	(0,4)	(-26,3)	(111,3)	(66,1)	(443,1)	(114,1)	(337,1)	(110,1)	(8,1)	(1,0)	(1,0)	(1,0)	(1,0)	(1,0)	(1,0)	
L1D -442>	(212,5)	(113,5)	(442,112)	(215,10)	(421,4)	(1,3)	(108,4)	(110,11)	(220,3)	(441,18)	(439,35)	(443,1)	(105,2)	(0,19)	(437,2)	(440,5)	
L1D -441>	(115,4)	(114,1)	(106,2)	(-8,1)	(212,9)	(104,8)	(273,3)	(439,3)	(-6,2)	(108,1)	(-42,1)	(1,0)	(1,0)	(1,0)	(1,0)	(1,0)	
L1D -440>	(-8,33)	(114,2)	(312,2)	(113,3)	(440,6)	(42,1)	(141,1)	(459,1)	(3,1)	(0,2)	(-42,2)	(63,2)	(1,0)	(1,0)	(1,0)	(1,0)	
L1D -439>	(113,7)	(0,28)	(-9,2)	(232,3)	(-8,1)	(459,2)	(1,1)	(324,1)	(336,1)	(328,1)	(306,1)	(307,1)	(308,2)	(310,2)	(326,1)	(331,1)	
L1D -438>	(459,12)	(438,29)	(212,2)	(276,2)	(311,3)	(308,1)	(349,1)	(315,1)	(330,1)	(336,1)	(358,1)	(367,1)	(306,1)	(340,1)	(338,1)	(328,1)	
L1D -437>	(0,3)	(146,2)	(1,5)	(2,12)	(438,64)	(212,1)	(311,9)	(274,0)	(262,0)	(458,3)	(434,3)	(295,0)	(419,2)	(-2,2)	(437,1)	(266,0)	
L1D -436>	(0,4)	(-9,1)	(1,3)	(436,1)	(438,68)	(434,9)	(295,5)	(212,0)	(2,0)	(-1,0)	(256,0)	(1,0)	(1,0)	(1,0)	(1,0)	(1,0)	
L1D -435>	(-2,2)	(264,2)	(2,2)	(0,1)	(435,65)	(1,1)	(294,11)	(434,4)	(438,3)	(32,1)	(265,1)	(431,4)	(210,5)	(-4,1)	(261,2)	(93,7)	
L1D -434>	(419,4)	(434,24)	(-2,5)	(1,5)	(0,23)	(106,2)	(298,1)	(2,15)	(295,17)	(438,75)	(435,42)	(212,9)	(136,2)	(-1,1)	(154,2)	(210,1)	
L1D -433>	(-42,1)	(-8,1)	(0,22)	(1,4)	(-3,21)	(435,80)	(294,4)	(210,6)	(431,3)	(3,0)	(2,0)	(1,0)	(1,0)	(1,0)	(1,0)	(1,0)	
L1D -432>	(0,2)	(-42,2)	(-4,1)	(-10,1)	(238,3)	(432,2)	(1,0)	(1,0)	(1,0)	(1,0)	(1,0)	(1,0)	(1,0)	(1,0)	(1,0)	(1,0)	
L1D -431>	(0,11)	(104,2)	(-2,1)	(1,76)	(431,38)	(294,11)	(210,6)	(435,15)	(92,1)	(8,1)	(1,0)	(1,0)	(1,0)	(1,0)	(1,0)	(1,0)	
L1D -430>	(1,111)	(0,10)	(222,1)	(206,2)	(4,1)	(430,1)	(431,1)	(261,4)	(121,1)	(16,1)	(1,0)	(1,0)	(1,0)	(1,0)	(1,0)	(1,0)	
L1D -429>	(1,119)	(0,12)	(450,1)	(221,1)	(8,1)	(1,0)	(1,0)	(1,0)	(1,0)	(1,0)	(1,0)	(1,0)	(1,0)	(1,0)	(1,0)	(1,0)	
L1D -428>	(0,2)	(1,11)	(2,1)	(456,1)	(8,3)	(-42,1)	(4,1)	(1,0)	(1,0)	(1,0)	(1,0)	(1,0)	(1,0)	(1,0)	(1,0)	(1,0)	
L1D -427>	(1,105)	(0,17)	(-17,1)	(203,1)	(2,1)	(427,53)	(290,5)	(423,2)	(8,0)	(1,0)	(1,0)	(1,0)	(1,0)	(1,0)	(1,0)	(1,0)	
L1D -426>	(0,10)	(-8,1)	(427,108)	(423,6)	(6,1)	(4,1)	(-3,3)	(203,1)	(1,3)	(426,3)	(290,3)	(270,1)	(2,1)	(8,1)	(1,0)	(1,0)	
L1D -425>	(8,1)	(1,6)	(0,5)	(427,125)	(423,4)	(4,0)	(425,0)	(203,9)	(290,11)	(2,1)	(1,0)	(1,0)	(1,0)	(1,0)	(1,0)	(1,0)	
L1D -424>	(0,2)	(427,6)	(290,1)	(424,1)	(8,2)	(423,3)	(4,1)	(-42,1)	(297,1)	(353,1)	(3,1)	(1,0)	(1,0)	(1,0)	(1,0)	(1,0)	
L1D -423>	(0,20)	(1,68)	(114,0)	(423,33)	(427,16)	(290,12)	(-1,0)	(203,2)	(428,0)	(-4,1)	(94,0)	(1,0)	(1,0)	(1,0)	(1,0)	(1,0)	
L1D -422>	(1,115)	(0,2)	(4,2)	(6,0)	(2,0)	(423,0)	(1,0)	(1,0)	(1,0)	(1,0)	(1,0)	(1,0)	(1,0)	(1,0)	(1,0)	(1,0)	
L1D -421>	(0,1)	(1,67)	(293,0)	(422,0)	(335,0)	(16,0)	(1,0)	(1,0)	(1,0)	(1,0)	(1,0)	(1,0)	(1,0)	(1,0)	(1,0)	(1,0)	
L1D -420>	(1,16)	(0,18)	(6,2)	(421,1)	(-3,18)	(420,1)	(79,1)	(3,2)	(1,0)	(1,0)	(1,0)	(1,0)	(1,0)	(1,0)	(1,0)	(1,0)	
L1D -419>	(1,104)	(0,11)	(422,1)	(419,19)	(286,5)	(1,0)	(1,0)	(1,0)	(1,0)	(1,0)	(1,0)	(1,0)	(1,0)	(1,0)	(1,0)	(1,0)	
L1D -418>	(196,1)	(419,95)	(0,2)	(1,2)	(415,1)	(105,1)	(1,0)	(1,0)	(1,0)	(1,0)	(1,0)	(1,0)	(1,0)	(1,0)	(1,0)	(1,0)	
L1D -417>	(118,1)	(-3,1)	(123,0)	(122,1)	(419,98)	(286,15)	(196,10)	(1,4)	(8,0)	(415,8)	(0,1)	(113,1)	(2,0)	(1,0)	(1,0)	(1,0)	
L1D -416>	(0,5)	(400,4)	(413,2)	(260,6)	(209,9)	(416,18)	(419,1)	(204,3)	(252,4)	(188,1)	(128,2)	(5,3)	(415,9)	(384,3)	(414,1)	(202,2)	
L1D -415>	(0,40)	(1,104)	(419,32)	(286,38)	(415,90)	(411,1)	(122,2)	(120,1)	(268,1)	(115,1)	(2,2)	(196,1)	(287,1)	(-2,1)	(1,0)	(1,0)	
L1D -414>	(1,84)	(0,3)	(-64,1)	(-3,1)	(150,1)	(38,3)	(1,0)	(1,0)	(1,0)	(1,0)	(1,0)	(1,0)	(1,0)	(1,0)	(1,0)	(1,0)	
L1D -413>	(1,96)	(0,3)	(271,0)	(2,0)	(79,0)	(1,0)	(1,0)	(1,0)	(1,0)	(1,0)	(1,0)	(1,0)	(1,0)	(1,0)	(1,0)	(1,0)	
L1D -412>	(1,7)	(0,25)	(6,1)	(-3,17)	(412,1)	(270,5)	(200,1)	(183,1)	(84,1)	(222,1)	(3,1)	(1,0)	(1,0)	(1,0)	(1,0)	(1,0)	
L1D -411>	(0,21)	(1,73)	(407,1)	(270,0)	(-3,2)	(411,9)	(221,1)	(282,3)	(229,0)	(339,0)	(8,0)	(1,0)	(1,0)	(1,0)	(1,0)	(1,0)	
L1D -410>	(413,1)	(411,117)	(1,1)	(0,4)	(407,3)	(440,1)	(189,1)	(-3,1)	(1,0)	(1,0)	(1,0)	(1,0)	(1,0)	(1,0)	(1,0)	(1,0)	
L1D -409>	(261,1)	(262,1)	(0,7)	(411,51)	(-64,47)	(282,8)	(-6,1)	(197,1)	(1,1)	(407,1)	(189,3)	(1,0)	(1,0)	(1,0)	(1,0)	(1,0)	
L1D -408>	(1,2)	(407,4)	(206,5)	(205,1)	(252,1)	(3,1)	(-9,1)	(-2,1)	(113,1)	(411,4)	(440,1)	(104,3)	(0,2)	(384,1)	(282,1)	(189,1)	
L1D -407>	(0,21)	(1,69)	(407,86)	(377,3)	(411,20)	(282,5)	(94,5)	(-3,1)	(171,1)	(349,1)	(8,1)	(499,1)	(28,2)	(412,1)	(91,1)	(4,2)	
L1D -406>	(2,1)	(1,106)	(4,0)	(79,0)	(278,0)	(219,0)	(34,0)	(0,1)	(426,0)	(311,1)	(1,0)	(1,0)	(1,0)	(1,0)	(1,0)	(1,0)	
L1D -405>	(197,1)	(1,70)	(311,1)	(405,0)	(0,1)	(300,0)	(276,0)	(275,0)	(316,0)	(325,0)	(334,0)	(297,0)	(296,0)	(273,0)	(305,0)	(304,0)	
L1D -404>	(0,1)	(-64,1)	(2,1)	(1,12)	(4,1)	(16,2)	(9,2)	(313,1)	(1,0)	(1,0)	(1,0)	(1,0)	(1,0)	(1,0)	(1,0)	(1,0)	
L1D -403>	(93,37)	(0,9)	(97,40)	(105,40)	(92,36)	(121,18)	(1,90)	(403,16)	(104,77)	(266,16)	(113,33)	(90,30)	(250,65)	(114,34)	(264,2)	(117,27)	
L1D -402>	(261,5)	(93,17)	(105,21)	(104,37)	(92,15)	(113,19)	(264,11)	(94,1)	(403,88)	(121,11)	(250,5)	(97,23)	(112,4)	(265,8)	(114,7)	(95,6)	
L1D -401>	(318,2)	(182,4)	(278,2)	(260,2)	(398,2)	(102,1)	(-26,2)	(122,1)	(11,1)	(196,1)	(403,60)	(121,1)	(1,2)	(197,1)	(8,3)	(313,1)	
L1D -400>	(0,5)	(-64,3)	(7,1)	(254,1)	(400,4)	(464,1)	(121,2)	(112,4)	(122,38)	(384,2)	(105,1)	(363,3)	(399,1)	(278,3)	(403,2)	(283,1)	
L1D -399>	(0,7)	(1,63)	(399,46)	(250,7)	(120,3)	(265,3)	(403,25)	(392,2)	(2,2)	(90,8)	(278,12)	(-64,1)	(3,3)	(92,2)	(93,1)	(104,3)	
L1D -398>	(97,21)	(2,18)	(-42,18)	(93,10)	(1,101)	(-64,1)	(0,52)	(104,47)	(250,18)	(92,15)	(113,9)	(121,17)	(8,4)	(-3,22)	(3,6)	(264,5)	
L1D -397>	(93,2)	(250,1)	(183,0)	(1,118)	(10,0)	(91,0)	(2,0)	(448,0)	(0,0)	(-26,0)	(1,0)	(1,0)	(1,0)	(1,0)	(1,0)	(1,0)	
L1D -396>	(278,1)	(4,1)	(2,2)	(-26,1)	(1,4)	(8,1)	(10,1)	(3,2)	(271,1)	(-9,1)	(0,3)	(-64,2)	(112,1)	(250,1)	(197,1)	(396,1)	
L1D -395>	(-1,2)	(102,1)	(101,1)	(0,1)	(1,39)	(4,1)	(-64,3)	(104,5)	(25,2)	(265,1)	(250,2)	(403,1)	(395,37)	(187,1)	(191,1)	(92,6)	
L1D -394>	(106,1)	(0,1)	(1,1)	(3,3)	(200,3)	(29,1)	(395,43)	(403,1)	(401,1)	(202,1)	(396,2)	(186,2)	(175,4)	(394,1)	(316,1)	(274,1)	
L1D -393>	(-64,6)	(393,13)	(359,1)	(255,1)	(8,4)	(0,3)	(128,1)	(197,5)	(395,42)	(391,5)	(-68,1)	(204,1)	(238,1)	(235,1)	(175,4)	(274,1)	
L1D -392>	(183,1)	(392,3)	(-1,1)	(-8,3)	(67,1)	(238,1)	(395,1)	(440,10)	(121,1)	(391,2)	(184,1)	(2,1)	(1,0)	(1,0)	(1,0)	(1,0)	
L1D -391>	(361,3)	(197,2)	(255,3)	(333,2)	(476,2)	(395,7)	(391,26)	(78,10)	(460,2)	(332,2)	(1,37)	(-64,10)	(274,1)	(0,2)	(11,4)	(139,1)	
L1D -390>	(0,15)	(-64,1)	(2,1)	(183,2)	(255,1)	(1,73)	(264,1)	(114,2)	(-52,1)	(1,0)	(1,0)	(1,0)	(1,0)	(1,0)	(1,0)	(1,0)	
L1D -389>	(-64,4)	(1,69)	(250,1)	(78,0)	(205,0)	(470,0)	(385,1)	(2,1)	(261,2)	(183,0)	(197,1)	(313,0)	(190,0)	(300,0)	(0,1)	(-55,0)	
L1D -388>	(388,1)	(2,2)	(-8,2)	(0,3)	(-16,8)	(462,1)	(-72,2)	(56,2)	(-1,1)	(8,1)	(-3,11)	(1,3)	(1,0)	(1,0)	(1,0)	(1,0)	
L1D -387>	(2,1)	(387,7)	(192,1)	(1,37)	(0,1)	(104,3)	(118,1)	(1,0)	(1,0)	(1,0)	(1,0)	(1,0)	(1,0)	(1,0)	(1,0)	(1,0)	
L1D -386>	(1,1)	(2,3)	(-64,9)	(208,1)	(121,1)	(387,20)	(0,1)	(296,1)	(-3,2)	(3,1)	(1,0)	(1,0)	(1,0)	(1,0)	(1,0)	(1,0)	
L1D -385>	(0,4)	(-64,7)	(122,18)	(113,1)	(2,3)	(385,2)	(51,1)	(8,34)	(-67,1)	(-2,1)	(383,2)	(387,4)	(336,1)	(313,2)	(404,1)	(197,3)	
L1D -384>	(121,12)	(0,7)	(3,1)	(-64,4)	(384,103)	(400,13)	(319,1)	(392,6)	(113,1)	(111,1)	(416,28)	(112,4)	(-72,5)	(448,2)	(440,3)	(105,1)	
L1D -383>	(260,1)	(383,34)	(120,2)	(0,2)	(-64,7)	(8,1)	(121,1)	(188,1)	(288,2)	(5,2)	(394,1)	(401,1)	(387,10)	(1,8)	(270,2)	(385,1)	
L1D -382>	(0,1)	(377,2)	(387,2)	(4,2)	(271,1)	(120,1)	(197,2)	(419,9)	(183,1)	(1,76)	(-128,1)	(415,1)	(266,1)	(1,0)	(1,0)	(1,0)	
L1D -381>	(-64,3)	(128,1)	(197,2)	(8,2)	(3,1)	(1,19)	(0,1)	(1,0)	(1,0)	(1,0)	(1,0)	(1,0)	(1,0)	(1,0)	(1,0)	(1,0)	
L1D -380>	(250,6)	(0,3)	(-64,3)	(264,1)	(-32,1)	(380,3)	(55,28)	(252,3)	(-16,2)	(296,2)	(-72,2)	(238,2)	(430,1)	(348,1)	(-15,1)	(270,1)	
L1D -379>	(1,16)	(286,1)	(-80,1)	(0,4)	(267,2)	(197,2)	(122,1)	(379,6)	(270,1)	(363,5)	(1,0)	(1,0)	(1,0)	(1,0)	(1,0)	(1,0)	
L1D -378>	(-48,3)	(200,9)	(115,4)	(293,2)	(3,5)	(380,18)	(379,2)	(16,7)	(0,7)	(67,1)	(-64,3)	(-32,4)	(8,1)	(182,1)	(378,15)	(63,1)	
L1D -377>	(0,12)	(1,2)	(114,9)	(312,4)	(5,11)	(-64,25)	(313,3)	(377,46)	(379,1)	(60,1)	(344,1)	(8,9)	(197,31)	(282,1)	(286,1)	(126,2)	
L1D -376>	(113,6)	(51,12)	(368,2)	(345,4)	(8,35)	(16,6)	(0,7)	(337,3)	(98,2)	(440,12)	(55,8)	(245,3)	(375,1)	(242,1)	(116,1)	(-12,2)	
L1D -375>	(347,4)	(296,3)	(92,2)	(379,2)	(95,2)	(375,18)	(60,3)	(-3,2)	(1,2)	(372,1)	(8,2)	(-55,3)	(197,7)	(-128,8)	(183,4)	(97,3)	
L1D -374>	(-64,1)	(8,4)	(246,1)	(0,1)	(271,2)	(96,9)	(407,3)	(411,3)	(363,1)	(1,15)	(1,0)	(1,0)	(1,0)	(1,0)	(1,0)	(1,0)	
L1D -373>	(-64,22)	(0,2)	(16,2)	(243,2)	(271,14)	(1,4)	(79,1)	(252,1)	(244,1)	(284,1)	(250,1)	(302,1)	(264,1)	(275,1)	(265,1)	(241,1)	
L1D -372>	(0,23)	(372,3)	(6,2)	(55,1)	(468,1)	(-72,7)	(56,1)	(1,0)	(1,0)	(1,0)	(1,0)	(1,0)	(1,0)	(1,0)	(1,0)	(1,0)	
L1D -371>	(176,1)	(174,1)	(8,5)	(0,1)	(16,3)	(-64,1)	(-8,2)	(371,1)	(4,1)	(1,4)	(1,0)	(1,0)	(1,0)	(1,0)	(1,0)	(1,0)	
L1D -370>	(0,1)	(125,1)	(2,1)	(8,9)	(7,1)	(207,1)	(1,2)	(251,1)	(-8,1)	(1,0)	(1,0)	(1,0)	(1,0)	(1,0)	(1,0)	(1,0)	
L1D -369>	(106,1)	(-64,9)	(277,1)	(274,1)	(8,7)	(16,1)	(160,1)	(157,2)	(367,1)	(1,0)	(1,0)	(1,0)	(1,0)	(1,0)	(1,0)	(1,0)	
L1D -368>	(-128,1)	(437,2)	(368,30)	(361,16)	(438,25)	(8,3)	(440,1)	(439,6)	(-64,6)	(55,17)	(432,1)	(253,2)	(252,6)	(245,1)	(309,2)	(259,2)	
L1D -367>	(104,2)	(-64,26)	(8,1)	(368,2)	(0,2)	(1,0)	(1,0)	(1,0)	(1,0)	(1,0)	(1,0)	(1,0)	(1,0)	(1,0)	(1,0)	(1,0)	
L1D -366>	(8,1)	(-64,5)	(241,1)	(399,1)	(369,1)	(1,0)	(1,0)	(1,0)	(1,0)	(1,0)	(1,0)	(1,0)	(1,0)	(1,0)	(1,0)	(1,0)	
L1D -365>	(-64,57)	(72,5)	(1,0)	(1,0)	(1,0)	(1,0)	(1,0)	(1,0)	(1,0)	(1,0)	(1,0)	(1,0)	(1,0)	(1,0)	(1,0)	(1,0)	
L1D -364>	(-64,81)	(8,1)	(7,1)	(2,1)	(4,1)	(316,2)	(364,2)	(227,1)	(236,3)	(365,1)	(-80,2)	(0,1)	(1,0)	(1,0)	(1,0)	(1,0)	
L1D -363>	(-1,8)	(-64,1)	(0,1)	(-8,1)	(-2,15)	(72,15)	(80,1)	(8,1)	(1,0)	(1,0)	(1,0)	(1,0)	(1,0)	(1,0)	(1,0)	(1,0)	
L1D -362>	(0,2)	(-64,8)	(464,1)	(72,3)	(-2,1)	(341,1)	(366,1)	(314,1)	(1,0)	(1,0)	(1,0)	(1,0)	(1,0)	(1,0)	(1,0)	(1,0)	
L1D -361>	(0,2)	(-64,29)	(-16,1)	(116,1)	(-8,3)	(361,6)	(-2,1)	(395,1)	(366,1)	(340,1)	(-128,1)	(1,0)	(1,0)	(1,0)	(1,0)	(1,0)	
L1D -360>	(1,2)	(352,1)	(167,1)	(-128,13)	(-64,9)	(360,12)	(361,14)	(-2,8)	(72,1)	(82,1)	(313,3)	(453,1)	(1,0)	(1,0)	(1,0)	(1,0)	
L1D -359>	(1,3)	(0,6)	(331,5)	(73,1)	(76,4)	(93,3)	(275,1)	(267,1)	(-2,1)	(-3,67)	(-128,2)	(8,3)	(-64,1)	(359,2)	(3,3)	(-1,1)	
L1D -358>	(172,1)	(220,1)	(0,9)	(-3,34)	(2,1)	(-64,1)	(32,1)	(275,1)	(3,6)	(243,1)	(128,6)	(80,6)	(-8,1)	(1,0)	(1,0)	(1,0)	
L1D -357>	(0,1)	(-128,4)	(220,2)	(-2,3)	(357,1)	(79,2)	(-8,1)	(1,0)	(1,0)	(1,0)	(1,0)	(1,0)	(1,0)	(1,0)	(1,0)	(1,0)	
L1D -356>	(2,1)	(4,1)	(218,1)	(220,2)	(0,2)	(79,1)	(356,2)	(1,0)	(1,0)	(1,0)	(1,0)	(1,0)	(1,0)	(1,0)	(1,0)	(1,0)	
L1D -355>	(110,2)	(123,2)	(3,3)	(438,2)	(-16,5)	(0,3)	(341,6)	(8,2)	(467,1)	(1,0)	(1,0)	(1,0)	(1,0)	(1,0)	(1,0)	(1,0)	
L1D -354>	(216,1)	(1,9)	(220,1)	(-64,6)	(354,4)	(13,2)	(0,1)	(474,1)	(1,0)	(1,0)	(1,0)	(1,0)	(1,0)	(1,0)	(1,0)	(1,0)	
L1D -353>	(216,1)	(121,1)	(-64,1)	(243,1)	(1,2)	(122,2)	(331,1)	(16,1)	(123,1)	(1,0)	(1,0)	(1,0)	(1,0)	(1,0)	(1,0)	(1,0)	
L1D -352>	(122,2)	(123,2)	(-2,39)	(110,2)	(352,3)	(2,1)	(1,1)	(0,1)	(344,2)	(-64,4)	(-128,4)	(471,3)	(120,1)	(253,1)	(361,1)	(439,1)	
L1D -351>	(-128,1)	(121,1)	(4,1)	(122,1)	(217,1)	(120,1)	(352,2)	(335,1)	(332,1)	(351,1)	(29,1)	(96,3)	(15,1)	(363,1)	(1,0)	(1,0)	
L1D -350>	(110,1)	(118,1)	(-64,1)	(4,1)	(343,1)	(128,1)	(471,1)	(120,1)	(-79,1)	(-128,1)	(-1,1)	(1,0)	(1,0)	(1,0)	(1,0)	(1,0)	
L1D -349>	(-128,3)	(66,1)	(321,1)	(79,1)	(9,1)	(328,2)	(244,2)	(325,1)	(225,1)	(119,1)	(0,2)	(17,1)	(333,1)	(1,0)	(1,0)	(1,0)	
L1D -348>	(118,2)	(-8,1)	(123,1)	(4,1)	(2,1)	(-32,1)	(-64,1)	(122,1)	(338,1)	(351,3)	(111,1)	(1,0)	(1,0)	(1,0)	(1,0)	(1,0)	
L1D -347>	(123,1)	(219,1)	(113,1)	(347,2)	(262,1)	(252,1)	(-65,1)	(-64,1)	(0,1)	(270,1)	(2,1)	(341,1)	(349,2)	(1,0)	(1,0)	(1,0)	
L1D -346>	(110,1)	(466,32)	(346,6)	(-64,2)	(1,0)	(1,0)	(1,0)	(1,0)	(1,0)	(1,0)	(1,0)	(1,0)	(1,0)	(1,0)	(1,0)	(1,0)	
L1D -345>	(-64,2)	(275,2)	(-16,3)	(243,11)	(297,2)	(-3,2)	(-128,2)	(123,1)	(-129,1)	(332,1)	(0,2)	(165,1)	(120,1)	(325,1)	(322,1)	(328,1)	
L1D -344>	(113,2)	(-16,4)	(0,6)	(-64,2)	(-128,3)	(-8,8)	(363,1)	(344,2)	(-7,5)	(106,2)	(35,2)	(458,1)	(-6,1)	(356,1)	(1,0)	(1,0)	
L1D -343>	(275,23)	(8,3)	(1,1)	(118,1)	(274,1)	(115,1)	(277,1)	(339,1)	(0,2)	(-128,9)	(3,1)	(363,2)	(223,3)	(199,1)	(-64,7)	(7,1)	
L1D -342>	(118,1)	(-112,1)	(114,2)	(275,1)	(2,1)	(1,1)	(363,1)	(326,1)	(117,1)	(-128,1)	(1,0)	(1,0)	(1,0)	(1,0)	(1,0)	(1,0)	
L1D -341>	(220,1)	(110,2)	(216,1)	(107,2)	(219,6)	(0,2)	(348,1)	(114,1)	(-64,5)	(120,1)	(9,2)	(1,0)	(1,0)	(1,0)	(1,0)	(1,0)	
L1D -340>	(-128,2)	(123,2)	(0,4)	(113,1)	(219,21)	(-64,3)	(2,3)	(454,2)	(110,7)	(108,2)	(111,4)	(209,5)	(115,1)	(118,4)	(122,2)	(453,11)	
L1D -339>	(118,1)	(111,1)	(115,3)	(218,3)	(0,2)	(-64,11)	(458,5)	(342,7)	(258,2)	(-6,1)	(336,1)	(208,1)	(461,1)	(1,0)	(1,0)	(1,0)	
L1D -338>	(-134,1)	(110,1)	(219,14)	(275,7)	(-8,1)	(24,4)	(122,1)	(146,1)	(-128,2)	(458,6)	(466,4)	(251,1)	(247,1)	(148,2)	(338,3)	(424,2)	
L1D -337>	(113,19)	(283,2)	(242,2)	(0,2)	(111,17)	(316,8)	(110,30)	(337,3)	(200,3)	(-128,1)	(219,7)	(120,6)	(243,5)	(274,2)	(275,39)	(3,2)	
L1D -336>	(108,3)	(1,1)	(333,1)	(275,2)	(110,18)	(37,1)	(-128,15)	(220,1)	(471,1)	(122,1)	(-64,5)	(352,1)	(148,1)	(0,1)	(52,1)	(344,1)	
L1D -335>	(109,5)	(120,19)	(123,18)	(220,42)	(108,100)	(197,10)	(111,50)	(219,73)	(3,1)	(335,1)	(213,5)	(115,5)	(122,10)	(119,17)	(112,20)	(-64,13)	
L1D -334>	(219,13)	(122,3)	(218,11)	(118,6)	(117,7)	(123,3)	(108,23)	(107,30)	(110,70)	(113,0)	(3,3)	(210,3)	(105,4)	(220,9)	(111,6)	(217,5)	
L1D -333>	(123,3)	(0,7)	(-109,1)	(124,24)	(105,2)	(113,2)	(110,1)	(219,1)	(331,1)	(112,1)	(108,5)	(66,1)	(2,1)	(333,2)	(111,1)	(-111,1)	
L1D -332>	(105,57)	(0,14)	(335,32)	(3,62)	(329,59)	(215,1)	(1,50)	(196,16)	(109,25)	(213,6)	(-2,49)	(201,16)	(110,26)	(111,72)	(108,67)	(204,27)	
L1D -331>	(0,18)	(113,21)	(337,1)	(334,49)	(107,21)	(328,55)	(114,8)	(115,2)	(108,8)	(-3,25)	(105,8)	(110,42)	(332,9)	(123,10)	(111,48)	(3,65)	
L1D -330>	(329,6)	(229,2)	(120,4)	(276,2)	(110,2)	(268,1)	(0,9)	(283,1)	(328,1)	(1,1)	(4,2)	(6,2)	(267,5)	(-2,1)	(90,3)	(-64,1)	
L1D -329>	(114,6)	(221,11)	(117,40)	(108,11)	(111,91)	(191,15)	(329,16)	(-3,3)	(110,64)	(328,1)	(121,6)	(0,8)	(-128,4)	(192,21)	(105,3)	(-114,5)	
L1D -328>	(7,14)	(110,20)	(0,2)	(108,7)	(-128,9)	(191,6)	(2,5)	(-64,7)	(192,7)	(328,2)	(-6,6)	(122,2)	(114,3)	(213,1)	(113,2)	(120,17)	
L1D -327>	(118,1)	(117,2)	(5,10)	(-1,2)	(8,4)	(384,1)	(448,1)	(-128,2)	(-64,2)	(210,2)	(327,78)	(191,3)	(1,0)	(1,0)	(1,0)	(1,0)	
L1D -326>	(105,1)	(110,23)	(326,9)	(118,3)	(332,2)	(4,2)	(2,5)	(191,5)	(-128,12)	(107,17)	(-52,8)	(0,7)	(113,17)	(-51,2)	(114,2)	(111,52)	
L1D -325>	(325,0)	(-11,66)	(332,0)	(328,0)	(377,0)	(104,0)	(-51,0)	(190,0)	(107,0)	(221,0)	(454,0)	(122,0)	(0,0)	(-6,4)	(110,0)	(115,0)	
L1D -324>	(-128,3)	(79,1)	(104,1)	(122,12)	(4,1)	(2,2)	(261,1)	(275,2)	(324,1)	(-8,1)	(0,1)	(110,1)	(116,1)	(-64,1)	(465,5)	(-7,1)	
L1D -323>	(314,2)	(323,3)	(0,4)	(111,2)	(110,6)	(122,3)	(112,1)	(416,1)	(-9,1)	(120,1)	(1,4)	(2,13)	(214,11)	(-1,6)	(-64,1)	(113,2)	
L1D -322>	(-3,27)	(0,45)	(191,3)	(267,5)	(67,3)	(131,2)	(409,4)	(123,3)	(-63,2)	(315,7)	(250,1)	(322,5)	(107,3)	(96,2)	(128,5)	(6,1)	
L1D -321>	(8,2)	(-1,5)	(2,2)	(-2,1)	(90,1)	(-64,21)	(321,6)	(66,2)	(349,1)	(454,1)	(0,3)	(499,1)	(319,1)	(331,2)	(214,27)	(315,1)	
L1D -320>	(7,5)	(320,5)	(448,2)	(-64,12)	(0,2)	(122,4)	(191,2)	(192,4)	(-6,1)	(107,1)	(114,3)	(18,1)	(45,2)	(-1,2)	(-10,1)	(120,1)	
L1D -319>	(9,22)	(176,1)	(191,2)	(40,1)	(322,1)	(6,3)	(446,2)	(113,1)	(0,2)	(121,1)	(104,1)	(448,1)	(319,4)	(340,1)	(-15,1)	(255,1)	
L1D -318>	(40,5)	(-64,15)	(91,2)	(9,17)	(318,3)	(-2,2)	(6,1)	(0,12)	(4,3)	(2,1)	(317,3)	(-14,2)	(199,1)	(14,1)	(197,1)	(-11,1)	
L1D -317>	(-64,2)	(4,11)	(-11,5)	(174,1)	(0,12)	(226,1)	(318,1)	(317,13)	(155,1)	(7,1)	(-15,4)	(2,10)	(133,1)	(32,1)	(315,2)	(330,2)	
L1D -316>	(2,51)	(-7,3)	(-16,2)	(0,4)	(-11,12)	(-6,6)	(316,10)	(-2,3)	(114,1)	(1,45)	(4,1)	(122,20)	(115,5)	(8,1)	(64,1)	(479,1)	
L1D -315>	(-64,5)	(0,5)	(121,3)	(108,1)	(113,1)	(434,1)	(-17,2)	(192,3)	(112,1)	(285,2)	(128,1)	(315,3)	(104,1)	(191,1)	(4,1)	(1,0)	
L1D -314>	(-5,2)	(-4,6)	(252,1)	(-1,1)	(-64,55)	(0,2)	(240,1)	(-30,1)	(46,1)	(234,1)	(-29,1)	(120,2)	(8,1)	(-128,1)	(314,7)	(316,1)	
L1D -313>	(-5,13)	(313,13)	(-3,3)	(-6,2)	(-8,1)	(445,1)	(5,2)	(0,1)	(457,1)	(281,1)	(197,10)	(414,1)	(192,2)	(-4,8)	(-128,5)	(377,1)	
L1D -312>	(312,31)	(320,3)	(185,1)	(102,1)	(440,2)	(197,1)	(6,2)	(108,9)	(-64,34)	(191,4)	(61,1)	(-7,23)	(-8,2)	(-128,4)	(-93,1)	(243,4)	
L1D -311>	(32,19)	(-128,8)	(0,2)	(-8,1)	(-64,29)	(110,1)	(3,28)	(255,3)	(332,1)	(60,2)	(311,1)	(330,6)	(113,3)	(335,3)	(8,1)	(197,1)	
L1D -310>	(91,5)	(1,2)	(199,2)	(168,12)	(82,3)	(-10,2)	(-9,3)	(111,2)	(4,2)	(2,2)	(3,5)	(12,3)	(311,1)	(182,1)	(-64,2)	(330,2)	
L1D -309>	(457,21)	(111,2)	(-64,65)	(12,2)	(133,2)	(0,9)	(-9,16)	(308,8)	(-8,2)	(199,16)	(330,4)	(197,2)	(2,3)	(8,1)	(179,1)	(220,1)	
L1D -308>	(165,5)	(192,3)	(5,6)	(83,2)	(2,5)	(95,1)	(0,3)	(-7,1)	(16,2)	(308,1)	(324,4)	(315,1)	(309,1)	(330,1)	(101,10)	(104,3)	
L1D -307>	(3,3)	(-128,1)	(-21,1)	(440,3)	(129,1)	(307,2)	(-64,2)	(242,1)	(192,4)	(8,1)	(18,4)	(137,1)	(335,1)	(458,1)	(0,1)	(-1,1)	
L1D -306>	(16,84)	(24,12)	(8,1)	(0,3)	(191,0)	(104,0)	(3,3)	(163,0)	(99,0)	(306,1)	(93,1)	(-7,0)	(55,0)	(1,0)	(1,0)	(1,0)	
L1D -305>	(457,10)	(-64,59)	(4,6)	(409,2)	(8,2)	(105,1)	(-11,5)	(264,3)	(275,3)	(20,1)	(305,2)	(272,2)	(24,33)	(-8,3)	(7,4)	(308,1)	
L1D -304>	(-4,1)	(110,1)	(3,1)	(0,10)	(7,5)	(465,1)	(-14,1)	(100,1)	(-12,4)	(304,2)	(-128,50)	(4,1)	(439,1)	(-64,4)	(-16,1)	(9,1)	
L1D -303>	(0,8)	(-1,1)	(1,1)	(24,2)	(2,3)	(381,1)	(322,2)	(-64,11)	(3,1)	(27,2)	(-16,2)	(32,2)	(-8,2)	(-26,1)	(461,3)	(288,1)	
L1D -302>	(310,1)	(1,4)	(2,1)	(0,2)	(-103,1)	(322,1)	(7,1)	(-64,7)	(-1,1)	(302,5)	(159,6)	(-2,9)	(409,28)	(-128,5)	(301,1)	(384,1)	
L1D -301>	(-64,42)	(24,14)	(457,3)	(-8,36)	(449,4)	(9,9)	(-18,3)	(1,2)	(-4,13)	(301,2)	(3,1)	(57,1)	(-1,5)	(0,11)	(2,2)	(7,1)	
L1D -300>	(-64,21)	(157,4)	(-8,3)	(-4,5)	(48,1)	(0,18)	(300,9)	(122,1)	(183,11)	(66,2)	(124,1)	(57,2)	(1,1)	(9,2)	(197,4)	(192,3)	
L1D -299>	(0,1)	(299,4)	(-52,1)	(283,2)	(-2,1)	(-108,1)	(-172,1)	(7,1)	(-106,1)	(246,1)	(335,1)	(-128,1)	(150,1)	(-76,1)	(121,2)	(448,1)	
L1D -298>	(434,3)	(-105,4)	(298,7)	(1,4)	(-14,1)	(-24,12)	(26,2)	(-1,2)	(0,6)	(127,4)	(226,1)	(113,1)	(-13,32)	(6,1)	(-64,1)	(120,1)	
L1D -297>	(18,2)	(1,78)	(0,36)	(-64,10)	(457,4)	(449,2)	(264,2)	(-13,5)	(3,1)	(272,1)	(-128,7)	(326,1)	(183,2)	(-79,1)	(6,3)	(297,2)	
L1D -296>	(0,9)	(-4,7)	(296,5)	(-64,40)	(18,1)	(-138,1)	(152,1)	(-12,1)	(-128,3)	(2,1)	(316,1)	(-13,1)	(-26,2)	(-5,1)	(1,0)	(1,0)	
L1D -295>	(0,6)	(-7,2)	(-16,3)	(454,1)	(355,1)	(-128,11)	(2,3)	(461,4)	(337,2)	(361,2)	(139,1)	(56,1)	(409,2)	(287,1)	(82,2)	(1,0)	
L1D -294>	(-13,2)	(27,3)	(169,1)	(1,1)	(255,2)	(-128,1)	(294,1)	(291,1)	(179,1)	(211,1)	(-64,2)	(-24,5)	(9,1)	(15,43)	(287,1)	(8,3)	
L1D -293>	(457,8)	(264,10)	(326,15)	(0,4)	(272,3)	(459,3)	(458,4)	(293,5)	(-1,4)	(313,2)	(4,1)	(288,7)	(165,2)	(197,21)	(337,6)	(361,17)	
L1D -292>	(337,4)	(451,5)	(281,2)	(292,31)	(-64,2)	(294,1)	(288,2)	(317,3)	(361,13)	(-9,1)	(326,9)	(246,4)	(459,7)	(344,3)	(-2,2)	(325,2)	
L1D -291>	(264,3)	(255,3)	(458,18)	(57,2)	(48,2)	(66,3)	(263,2)	(280,2)	(-9,2)	(343,2)	(298,3)	(112,1)	(322,1)	(330,1)	(272,1)	(258,1)	
L1D -290>	(1,4)	(-9,3)	(350,2)	(83,2)	(-8,9)	(3,1)	(11,30)	(263,10)	(0,8)	(275,1)	(47,2)	(197,6)	(342,3)	(130,2)	(5,3)	(290,1)	
L1D -289>	(457,40)	(264,125)	(280,5)	(267,18)	(354,4)	(272,75)	(260,5)	(263,25)	(275,93)	(288,45)	(265,5)	(-8,1)	(290,3)	(271,2)	(250,17)	(-2,4)	
L1D -288>	(-128,7)	(281,13)	(-64,2)	(249,4)	(250,4)	(6,1)	(2,3)	(263,2)	(130,1)	(288,31)	(287,1)	(256,6)	(465,4)	(336,1)	(257,2)	(29,1)	
L1D -287>	(16,6)	(-64,4)	(279,2)	(287,4)	(451,3)	(122,2)	(461,32)	(333,2)	(465,1)	(0,1)	(2,3)	(197,5)	(8,1)	(453,18)	(126,1)	(372,1)	
L1D -286>	(393,4)	(-11,16)	(7,3)	(197,1)	(219,1)	(8,2)	(-64,5)	(255,1)	(-9,11)	(-7,58)	(-16,6)	(60,3)	(6,1)	(285,3)	(32,1)	(-5,4)	
L1D -285>	(-3,5)	(2,2)	(197,3)	(98,5)	(-2,1)	(285,9)	(449,2)	(17,1)	(32,1)	(337,1)	(24,1)	(-32,1)	(-9,4)	(275,1)	(465,2)	(-64,2)	
L1D -284>	(280,8)	(250,4)	(289,4)	(281,29)	(0,4)	(284,34)	(252,6)	(340,6)	(288,32)	(97,5)	(6,3)	(105,1)	(409,2)	(249,8)	(197,3)	(273,4)	
L1D -283>	(255,17)	(283,5)	(191,3)	(275,5)	(257,2)	(282,4)	(0,14)	(96,16)	(343,3)	(-222,1)	(304,2)	(-3,12)	(-2,45)	(34,1)	(353,1)	(361,2)	
L1D -282>	(271,3)	(290,4)	(255,3)	(120,1)	(5,2)	(257,2)	(197,22)	(0,27)	(1,18)	(465,2)	(286,2)	(282,6)	(272,2)	(304,2)	(342,5)	(274,2)	
L1D -281>	(268,16)	(292,6)	(256,3)	(265,6)	(221,8)	(449,5)	(274,4)	(3,1)	(454,2)	(321,2)	(453,3)	(271,2)	(304,2)	(260,2)	(-128,12)	(275,11)	
L1D -280>	(220,4)	(-8,5)	(252,11)	(-128,10)	(221,11)	(391,2)	(255,6)	(281,3)	(260,3)	(267,3)	(264,3)	(347,1)	(280,3)	(4,1)	(0,2)	(256,3)	
L1D -279>	(-11,96)	(256,11)	(255,8)	(267,7)	(453,39)	(221,8)	(197,5)	(-3,3)	(-128,5)	(0,6)	(103,3)	(-26,2)	(274,7)	(279,3)	(257,2)	(220,1)	
L1D -278>	(16,2)	(0,72)	(221,7)	(-1,2)	(271,2)	(23,3)	(100,1)	(278,103)	(146,1)	(15,1)	(-64,2)	(103,4)	(399,1)	(274,1)	(264,1)	(233,1)	
L1D -277>	(266,2)	(241,2)	(-5,2)	(220,5)	(219,4)	(326,4)	(360,2)	(275,4)	(359,1)	(386,1)	(0,9)	(-15,3)	(267,2)	(221,10)	(259,2)	(-72,1)	
L1D -276>	(219,6)	(220,8)	(256,4)	(-64,12)	(104,6)	(485,2)	(276,76)	(89,19)	(281,2)	(311,6)	(2,2)	(266,2)	(328,2)	(-6,1)	(24,1)	(459,1)	
L1D -275>	(350,4)	(343,12)	(274,8)	(276,1)	(310,4)	(318,3)	(219,7)	(0,47)	(317,3)	(326,26)	(361,44)	(459,19)	(368,8)	(330,15)	(463,4)	(-64,10)	
L1D -274>	(-64,2)	(276,11)	(220,6)	(326,11)	(-128,3)	(309,11)	(0,19)	(459,7)	(-9,4)	(334,3)	(-2,3)	(250,2)	(2,1)	(249,4)	(1,7)	(217,1)	
L1D -273>	(1,31)	(272,5)	(264,2)	(221,2)	(241,3)	(259,2)	(59,2)	(465,4)	(219,2)	(256,3)	(220,10)	(290,7)	(0,1)	(441,1)	(249,1)	(-8,1)	
L1D -272>	(0,55)	(218,3)	(272,15)	(221,7)	(264,28)	(256,3)	(268,10)	(252,3)	(1,52)	(16,3)	(-133,1)	(-64,13)	(-128,12)	(260,11)	(292,3)	(288,2)	
L1D -271>	(1,114)	(282,48)	(-16,61)	(218,4)	(220,8)	(11,17)	(13,30)	(428,4)	(23,1)	(248,4)	(0,27)	(86,14)	(-128,27)	(437,13)	(-64,14)	(263,3)	
L1D -270>	(0,56)	(-64,12)	(-3,2)	(221,20)	(253,4)	(6,1)	(271,2)	(275,1)	(462,1)	(-4,1)	(2,5)	(1,110)	(-128,4)	(16,8)	(270,3)	(249,1)	
L1D -269>	(0,8)	(220,34)	(384,7)	(260,4)	(221,89)	(466,2)	(468,3)	(-4,21)	(448,3)	(72,3)	(-16,5)	(82,6)	(5,4)	(319,1)	(7,1)	(369,1)	
L1D -268>	(252,6)	(221,67)	(258,4)	(249,7)	(281,18)	(465,15)	(220,29)	(264,4)	(283,4)	(219,12)	(288,18)	(282,7)	(268,4)	(256,69)	(273,10)	(332,2)	
L1D -267>	(-64,30)	(220,89)	(218,12)	(221,10)	(0,26)	(219,19)	(-1,4)	(268,3)	(95,61)	(80,14)	(106,4)	(444,11)	(89,5)	(-128,1)	(1,17)	(315,6)	
L1D -266>	(219,59)	(-1,6)	(272,6)	(220,3)	(250,3)	(0,34)	(267,7)	(465,2)	(218,11)	(266,15)	(276,4)	(221,74)	(268,2)	(1,48)	(248,2)	(256,3)	
L1D -265>	(288,15)	(0,53)	(340,1)	(218,35)	(220,88)	(290,6)	(304,8)	(465,15)	(265,12)	(276,9)	(7,4)	(264,7)	(-16,9)	(268,43)	(275,12)	(256,9)	
L1D -264>	(122,1)	(-1,10)	(276,4)	(-16,7)	(465,11)	(0,21)	(-128,9)	(5,4)	(219,45)	(252,115)	(284,31)	(264,64)	(296,9)	(-64,9)	(256,39)	(299,6)	
L1D -263>	(245,5)	(0,13)	(218,11)	(437,19)	(307,3)	(139,2)	(221,6)	(38,2)	(39,1)	(-128,22)	(220,1)	(261,1)	(-16,3)	(-13,1)	(264,2)	(8,1)	
L1D -262>	(216,2)	(217,3)	(8,2)	(377,2)	(0,7)	(37,5)	(197,2)	(220,100)	(79,1)	(5,2)	(183,3)	(105,2)	(443,1)	(261,2)	(262,2)	(318,1)	
L1D -261>	(243,4)	(115,10)	(5,3)	(270,9)	(122,24)	(219,5)	(2,33)	(1,10)	(261,42)	(113,2)	(221,64)	(183,41)	(0,16)	(197,2)	(377,8)	(465,4)	
L1D -260>	(-11,8)	(3,9)	(268,6)	(2,40)	(220,64)	(465,7)	(112,6)	(121,13)	(-145,4)	(10,22)	(319,11)	(260,70)	(221,7)	(330,1)	(122,6)	(332,3)	
L1D -259>	(122,9)	(220,37)	(292,9)	(290,10)	(310,7)	(121,22)	(250,5)	(112,15)	(219,45)	(167,28)	(195,2)	(264,10)	(-12,12)	(0,17)	(120,5)	(2,13)	
L1D -258>	(-13,70)	(0,10)	(276,6)	(1,3)	(258,8)	(268,5)	(293,3)	(264,3)	(465,3)	(267,7)	(416,4)	(80,2)	(121,3)	(-64,2)	(95,1)	(112,2)	
L1D -257>	(260,29)	(221,11)	(264,29)	(250,18)	(268,82)	(120,6)	(284,5)	(2,1)	(0,78)	(258,30)	(282,5)	(275,29)	(245,4)	(266,5)	(465,18)	(232,6)	
L1D -256>	(0,52)	(465,9)	(304,6)	(259,7)	(256,31)	(260,7)	(283,13)	(284,1)	(282,6)	(221,99)	(268,58)	(297,4)	(252,47)	(257,4)	(289,6)	(121,4)	
L1D -255>	(0,15)	(216,8)	(255,34)	(-55,4)	(16,18)	(128,7)	(73,2)	(221,2)	(1,3)	(-1,1)	(-8,16)	(-64,6)	(220,50)	(219,4)	(191,3)	(4,2)	
L1D -254>	(1,41)	(217,12)	(263,5)	(257,64)	(219,23)	(220,7)	(8,8)	(250,6)	(-8,5)	(-2,51)	(253,87)	(71,12)	(256,1)	(390,2)	(-7,3)	(254,17)	
L1D -253>	(262,6)	(357,10)	(333,1)	(304,3)	(114,3)	(-64,3)	(253,7)	(0,8)	(452,9)	(257,10)	(261,2)	(221,3)	(264,3)	(252,7)	(256,3)	(-8,2)	
L1D -252>	(7,120)	(1,6)	(325,1)	(106,1)	(55,2)	(252,13)	(273,1)	(0,4)	(6,29)	(332,4)	(221,1)	(340,8)	(451,2)	(465,3)	(2,3)	(-6,1)	
L1D -251>	(220,1)	(5,76)	(-8,0)	(264,1)	(15,0)	(251,0)	(362,0)	(8,0)	(118,0)	(113,1)	(112,0)	(-1,15)	(448,1)	(128,0)	(282,0)	(0,0)	
L1D -250>	(101,27)	(103,31)	(102,21)	(121,78)	(90,25)	(250,102)	(95,3)	(117,13)	(91,12)	(104,55)	(114,10)	(110,8)	(97,3)	(265,27)	(246,1)	(94,7)	
L1D -249>	(264,26)	(13,1)	(256,9)	(457,3)	(260,5)	(220,17)	(273,10)	(272,5)	(357,8)	(248,5)	(268,4)	(265,4)	(249,9)	(250,4)	(465,6)	(288,4)	
L1D -248>	(305,2)	(292,3)	(0,6)	(256,2)	(252,11)	(264,3)	(-11,5)	(-7,2)	(447,39)	(220,112)	(284,2)	(-64,2)	(300,1)	(281,21)	(268,2)	(236,1)	
L1D -247>	(1,3)	(326,2)	(-85,78)	(218,2)	(0,16)	(-84,3)	(247,24)	(197,5)	(337,6)	(16,13)	(-216,15)	(245,10)	(-8,2)	(255,1)	(8,51)	(276,1)	
L1D -246>	(-9,3)	(-76,8)	(396,3)	(-7,4)	(246,11)	(79,1)	(389,2)	(40,8)	(221,3)	(-216,3)	(-89,9)	(-64,17)	(16,2)	(-83,12)	(8,5)	(0,7)	
L1D -245>	(438,7)	(0,28)	(-87,115)	(-15,3)	(-64,7)	(66,1)	(221,10)	(8,4)	(245,51)	(242,78)	(2,3)	(56,6)	(459,2)	(246,2)	(-215,2)	(13,4)	
L1D -244>	(0,9)	(218,2)	(-91,2)	(242,5)	(-5,2)	(220,5)	(-10,2)	(244,11)	(-64,10)	(13,5)	(4,4)	(10,4)	(-7,1)	(55,2)	(2,18)	(243,3)	
L1D -243>	(221,10)	(0,12)	(217,3)	(-84,5)	(104,3)	(6,1)	(-83,3)	(13,5)	(97,2)	(113,2)	(241,8)	(220,10)	(345,7)	(324,2)	(368,2)	(361,6)	
L1D -242>	(221,22)	(0,18)	(435,24)	(218,2)	(431,4)	(1,88)	(239,6)	(-84,5)	(2,5)	(232,3)	(242,88)	(245,20)	(-64,2)	(247,17)	(318,1)	(-90,11)	
L1D -241>	(221,12)	(1,11)	(4,3)	(217,5)	(-216,4)	(246,3)	(-107,4)	(0,14)	(10,3)	(274,11)	(-9,29)	(-64,4)	(240,8)	(-89,5)	(209,4)	(442,2)	
L1D -240>	(239,1)	(0,1)	(56,4)	(103,1)	(220,1)	(221,29)	(79,1)	(-64,33)	(447,2)	(-2,3)	(243,1)	(64,101)	(-55,1)	(240,2)	(238,2)	(241,2)	
L1D -239>	(220,14)	(221,30)	(219,5)	(-110,4)	(357,2)	(0,12)	(428,2)	(1,9)	(218,6)	(316,2)	(-64,18)	(315,2)	(-7,2)	(79,3)	(-9,3)	(236,1)	
L1D -238>	(219,23)	(-107,28)	(446,3)	(226,1)	(217,3)	(-98,2)	(19,2)	(266,7)	(1,7)	(-9,6)	(0,7)	(237,12)	(-110,3)	(450,4)	(-92,2)	(-104,2)	
L1D -237>	(217,3)	(240,12)	(309,7)	(220,3)	(251,9)	(13,4)	(56,2)	(303,2)	(221,23)	(219,2)	(237,18)	(0,6)	(-17,1)	(-219,1)	(460,1)	(55,3)	
L1D -236>	(220,3)	(221,77)	(3,110)	(1,5)	(236,8)	(437,2)	(-64,120)	(0,4)	(427,3)	(138,2)	(224,2)	(-111,2)	(240,1)	(2,1)	(426,1)	(4,2)	
L1D -235>	(219,13)	(272,2)	(-64,2)	(233,39)	(235,2)	(0,4)	(395,10)	(-1,3)	(284,2)	(6,9)	(-16,1)	(220,21)	(1,2)	(191,1)	(3,16)	(68,4)	
L1D -234>	(221,7)	(-2,1)	(13,2)	(-100,36)	(103,3)	(-64,2)	(218,19)	(1,6)	(6,2)	(232,16)	(3,18)	(229,3)	(219,16)	(220,2)	(234,8)	(228,7)	
L1D -233>	(3,41)	(233,15)	(218,12)	(8,3)	(6,2)	(224,2)	(227,3)	(0,14)	(242,2)	(219,5)	(-216,1)	(232,46)	(222,2)	(237,2)	(221,20)	(9,2)	
L1D -232>	(219,11)	(0,20)	(221,6)	(3,42)	(-64,9)	(-114,11)	(-111,11)	(-117,10)	(315,4)	(1,38)	(-120,4)	(292,10)	(234,56)	(248,1)	(229,47)	(230,47)	
L1D -231>	(6,20)	(231,9)	(0,18)	(221,55)	(4,2)	(226,2)	(-114,3)	(228,2)	(-110,2)	(150,1)	(7,1)	(-64,6)	(395,89)	(284,12)	(-113,1)	(-1,1)	
L1D -230>	(110,12)	(217,3)	(4,14)	(-8,20)	(229,35)	(0,22)	(221,19)	(218,7)	(230,10)	(2,4)	(-118,9)	(3,5)	(-117,6)	(6,24)	(78,5)	(197,1)	
L1D -229>	(217,7)	(220,11)	(-216,10)	(3,48)	(-64,7)	(8,8)	(221,12)	(229,17)	(419,18)	(-103,14)	(-100,2)	(1,8)	(226,25)	(232,47)	(6,11)	(0,15)	
L1D -228>	(0,9)	(236,4)	(9,4)	(220,65)	(219,7)	(221,106)	(315,5)	(419,4)	(227,1)	(-111,4)	(228,19)	(296,7)	(429,7)	(300,2)	(292,2)	(6,5)	
L1D -227>	(1,10)	(230,11)	(3,55)	(224,118)	(227,37)	(4,4)	(89,5)	(113,3)	(6,5)	(-110,8)	(8,1)	(115,2)	(-108,4)	(-105,39)	(-102,2)	(-106,14)	
L1D -226>	(3,99)	(0,38)	(89,12)	(224,73)	(236,3)	(-5,4)	(5,41)	(223,72)	(229,7)	(-108,10)	(-102,3)	(219,28)	(6,21)	(-55,1)	(226,26)	(218,2)	
L1D -225>	(0,26)	(1,11)	(-64,11)	(-13,31)	(37,7)	(116,11)	(24,8)	(3,17)	(6,97)	(38,3)	(242,7)	(-106,1)	(-102,6)	(218,7)	(221,10)	(228,3)	
L1D -224>	(0,16)	(222,12)	(-248,10)	(3,34)	(221,106)	(-64,8)	(-108,1)	(224,5)	(219,5)	(-107,4)	(6,18)	(-88,1)	(5,4)	(232,4)	(-111,14)	(-110,10)	
L1D -223>	(221,78)	(387,7)	(223,11)	(219,6)	(-1,2)	(3,17)	(1,4)	(0,7)	(-64,7)	(220,22)	(-111,2)	(2,2)	(6,34)	(5,7)	(227,5)	(259,1)	
L1D -222>	(225,10)	(-110,5)	(6,92)	(-117,4)	(221,25)	(-109,1)	(219,10)	(226,2)	(-2,4)	(220,5)	(208,4)	(224,6)	(222,10)	(218,2)	(1,2)	(3,11)	
L1D -221>	(6,9)	(241,1)	(0,17)	(221,93)	(3,4)	(-5,1)	(220,1)	(224,1)	(218,2)	(111,2)	(233,3)	(239,1)	(-111,9)	(84,6)	(-110,3)	(110,3)	
L1D -220>	(0,10)	(221,52)	(220,73)	(233,4)	(114,3)	(113,1)	(279,2)	(-1,2)	(-107,1)	(-6,3)	(-8,1)	(234,1)	(242,1)	(241,4)	(6,5)	(262,1)	
L1D -219>	(243,3)	(279,3)	(220,55)	(219,87)	(114,4)	(259,7)	(276,9)	(268,6)	(234,7)	(245,2)	(108,3)	(6,4)	(248,3)	(271,2)	(270,3)	(239,4)	
L1D -218>	(219,83)	(218,87)	(245,19)	(254,4)	(273,5)	(-108,1)	(6,2)	(247,2)	(3,12)	(270,5)	(249,2)	(11,3)	(265,3)	(264,4)	(272,2)	(243,4)	
L1D -217>	(218,78)	(227,5)	(253,4)	(6,19)	(111,31)	(110,45)	(232,3)	(238,3)	(217,38)	(123,22)	(239,2)	(214,6)	(244,3)	(-248,13)	(-9,1)	(113,9)	
L1D -216>	(217,25)	(204,5)	(6,8)	(216,34)	(114,3)	(0,6)	(110,17)	(111,68)	(11,3)	(5,5)	(214,2)	(3,2)	(122,8)	(113,37)	(1,2)	(-6,1)	
L1D -215>	(215,102)	(111,26)	(6,21)	(121,28)	(0,14)	(-5,25)	(218,16)	(113,39)	(110,95)	(5,10)	(112,53)	(332,7)	(105,1)	(212,12)	(-11,22)	(379,10)	
L1D -214>	(120,16)	(0,25)	(6,70)	(-6,42)	(110,93)	(108,1)	(5,17)	(214,10)	(111,3)	(12,6)	(3,5)	(-5,20)	(213,5)	(1,37)	(-14,2)	(215,4)	
L1D -213>	(-5,88)	(119,29)	(-252,15)	(0,24)	(108,3)	(5,10)	(210,11)	(7,5)	(110,38)	(6,48)	(-6,77)	(213,101)	(11,22)	(17,1)	(111,35)	(-1,3)	
L1D -212>	(0,18)	(212,104)	(5,6)	(219,6)	(209,21)	(3,1)	(334,26)	(-6,39)	(105,9)	(110,6)	(-9,6)	(109,15)	(6,104)	(118,70)	(-5,4)	(310,4)	
L1D -211>	(-198,3)	(-6,44)	(-1,1)	(117,53)	(-11,25)	(6,68)	(0,6)	(5,12)	(106,10)	(1,6)	(-21,11)	(211,20)	(108,4)	(209,18)	(-5,13)	(208,9)	
L1D -210>	(210,48)	(110,14)	(107,79)	(0,5)	(116,31)	(-12,6)	(111,2)	(-6,44)	(-2,8)	(6,15)	(334,9)	(16,1)	(-5,4)	(105,40)	(11,5)	(-11,4)	
L1D -209>	(-6,90)	(6,107)	(209,10)	(115,10)	(-256,8)	(-11,27)	(5,4)	(0,10)	(-9,4)	(1,9)	(224,4)	(-5,11)	(-25,1)	(83,3)	(8,4)	(11,13)	
L1D -208>	(-128,8)	(114,119)	(-264,5)	(5,26)	(-200,17)	(6,57)	(-6,19)	(210,1)	(-5,27)	(80,11)	(208,39)	(-10,7)	(-118,4)	(-11,6)	(-7,4)	(-64,6)	
L1D -207>	(-6,84)	(0,6)	(6,58)	(-35,1)	(5,43)	(-106,4)	(-200,3)	(-7,5)	(113,125)	(104,2)	(210,3)	(2,9)	(-232,2)	(105,4)	(207,38)	(-64,43)	
L1D -206>	(3,1)	(6,68)	(0,5)	(182,2)	(5,6)	(-64,5)	(-21,3)	(-6,11)	(206,35)	(185,1)	(113,10)	(404,46)	(398,17)	(112,6)	(213,1)	(276,6)	
L1D -205>	(-6,92)	(-102,7)	(384,13)	(0,19)	(185,11)	(204,28)	(6,15)	(-64,8)	(5,26)	(402,6)	(-149,21)	(-5,38)	(205,18)	(404,117)	(-38,26)	(202,1)	
L1D -204>	(207,13)	(15,11)	(6,90)	(-249,16)	(111,17)	(5,12)	(0,92)	(11,13)	(208,9)	(-6,55)	(203,26)	(3,32)	(204,101)	(-64,1)	(209,26)	(-4,106)	
L1D -203>	(192,9)	(0,14)	(-249,7)	(15,4)	(203,24)	(63,9)	(69,9)	(6,108)	(110,54)	(109,8)	(-64,73)	(3,42)	(-205,17)	(-6,16)	(5,18)	(331,1)	
L1D -202>	(63,5)	(69,5)	(-249,8)	(15,7)	(-1,12)	(-37,1)	(-6,108)	(-259,5)	(192,7)	(5,14)	(213,14)	(-206,38)	(6,35)	(202,22)	(87,4)	(200,39)	
L1D -201>	(107,1)	(112,31)	(-1,16)	(63,10)	(69,10)	(208,13)	(197,13)	(201,50)	(204,22)	(6,119)	(11,39)	(-6,41)	(5,47)	(0,30)	(108,72)	(3,10)	
L1D -200>	(6,70)	(-1,8)	(-64,15)	(200,22)	(209,8)	(106,4)	(-38,1)	(-18,3)	(111,34)	(-9,8)	(-3,4)	(5,12)	(208,12)	(-6,21)	(0,7)	(107,5)	
L1D -199>	(5,87)	(-64,46)	(-4,12)	(7,63)	(195,3)	(-40,75)	(199,18)	(-37,1)	(356,7)	(110,12)	(9,8)	(-18,7)	(3,2)	(105,2)	(0,12)	(-28,4)	
L1D -198>	(109,35)	(329,8)	(0,7)	(5,10)	(-41,1)	(198,10)	(-5,65)	(1,7)	(-6,5)	(105,82)	(6,28)	(195,19)	(108,15)	(104,3)	(-10,6)	(-8,4)	
L1D -197>	(108,117)	(185,4)	(5,21)	(104,24)	(197,48)	(-69,2)	(377,9)	(-42,8)	(6,12)	(183,11)	(1,7)	(199,3)	(300,2)	(0,74)	(195,3)	(-64,1)	
L1D -196>	(0,8)	(107,75)	(-6,18)	(111,2)	(-213,2)	(196,29)	(110,50)	(3,37)	(-50,1)	(103,5)	(5,25)	(-197,5)	(49,2)	(-206,2)	(1,11)	(-228,3)	
L1D -195>	(105,33)	(334,1)	(14,2)	(6,5)	(176,2)	(3,16)	(106,9)	(195,29)	(110,78)	(111,54)	(102,67)	(1,18)	(5,2)	(-6,18)	(332,7)	(101,3)	
L1D -194>	(-64,9)	(6,33)	(5,19)	(-6,6)	(194,34)	(105,69)	(1,8)	(111,86)	(0,19)	(108,10)	(107,1)	(83,3)	(329,2)	(332,2)	(3,4)	(110,8)	
L1D -193>	(329,72)	(193,78)	(-1,19)	(-64,18)	(-5,122)	(107,11)	(1,19)	(-242,8)	(331,1)	(104,24)	(8,62)	(6,19)	(0,9)	(-289,34)	(-92,4)	(155,14)	
L1D -192>	(-9,3)	(-6,48)	(192,65)	(102,20)	(5,23)	(329,25)	(107,22)	(-47,10)	(-5,55)	(328,26)	(103,9)	(193,1)	(154,14)	(0,17)	(-242,4)	(108,15)	
L1D -191>	(191,72)	(309,3)	(-6,49)	(329,5)	(172,2)	(-5,96)	(105,4)	(-10,2)	(319,2)	(102,16)	(328,10)	(-3,7)	(0,1)	(5,4)	(108,4)	(7,1)	
L1D -190>	(152,122)	(153,30)	(190,9)	(-64,39)	(7,6)	(197,27)	(-9,1)	(-232,8)	(5,24)	(-6,27)	(9,6)	(0,17)	(1,11)	(-228,4)	(6,4)	(-289,19)	
L1D -189>	(152,61)	(-172,3)	(151,68)	(-225,4)	(5,74)	(-6,44)	(293,2)	(-5,6)	(157,4)	(51,2)	(0,4)	(-1,6)	(-64,4)	(-175,28)	(75,4)	(204,5)	
L1D -188>	(38,7)	(151,92)	(150,64)	(-55,21)	(156,4)	(2,24)	(5,46)	(1,24)	(0,41)	(172,9)	(-225,1)	(-256,8)	(-32,8)	(-205,47)	(188,10)	(-197,6)	
L1D -187>	(-1,72)	(150,54)	(-64,32)	(-158,21)	(2,29)	(-206,31)	(187,34)	(0,28)	(5,49)	(-150,10)	(191,10)	(266,8)	(219,12)	(155,1)	(255,21)	(48,5)	
L1D -186>	(213,11)	(0,2)	(186,50)	(5,15)	(-279,7)	(2,102)	(-206,17)	(-5,23)	(60,4)	(7,5)	(197,8)	(-4,13)	(148,30)	(-64,38)	(47,5)	(-228,4)	
L1D -185>	(-279,10)	(-5,28)	(-64,13)	(185,32)	(4,1)	(5,14)	(-139,5)	(2,38)	(-158,6)	(-8,93)	(1,10)	(153,11)	(7,29)	(147,12)	(-4,9)	(-72,12)	
L1D -184>	(-6,23)	(183,12)	(-5,56)	(2,102)	(168,1)	(-64,58)	(184,30)	(-216,31)	(-205,21)	(1,31)	(7,33)	(-224,12)	(-1,6)	(5,39)	(6,16)	(378,3)	
L1D -183>	(6,15)	(-1,6)	(-5,38)	(-289,110)	(183,51)	(-26,1)	(-18,6)	(1,13)	(5,28)	(-6,12)	(7,45)	(-276,11)	(182,5)	(-273,4)	(197,7)	(2,93)	
L1D -182>	(-19,18)	(163,106)	(-35,2)	(1,12)	(-5,18)	(182,5)	(7,5)	(-31,2)	(6,3)	(-23,3)	(-9,3)	(-15,12)	(-2,1)	(5,3)	(-64,3)	(2,14)	
L1D -181>	(-8,2)	(-6,1)	(-5,26)	(-1,2)	(-272,2)	(1,12)	(0,9)	(6,8)	(182,1)	(-64,71)	(181,7)	(5,3)	(2,33)	(7,12)	(-4,2)	(-264,1)	
L1D -180>	(-289,4)	(2,59)	(-5,96)	(180,41)	(6,8)	(-274,3)	(-197,60)	(-21,4)	(1,39)	(-64,1)	(-4,4)	(0,9)	(-192,11)	(-284,17)	(5,23)	(7,22)	
L1D -179>	(-5,75)	(179,40)	(1,42)	(6,7)	(32,2)	(-275,3)	(2,62)	(163,7)	(-4,12)	(5,26)	(4,1)	(7,24)	(51,18)	(-64,32)	(-1,4)	(-206,2)	
L1D -178>	(-5,37)	(50,3)	(-186,2)	(163,81)	(184,1)	(-275,2)	(1,13)	(6,5)	(-72,3)	(178,20)	(5,9)	(-1,1)	(-4,7)	(-147,1)	(128,6)	(2,29)	
L1D -177>	(-39,3)	(-1,2)	(-5,104)	(1,51)	(5,14)	(-64,41)	(49,9)	(0,3)	(163,2)	(-81,3)	(-103,2)	(177,37)	(-47,5)	(-4,8)	(7,15)	(2,43)	
L1D -176>	(300,7)	(112,66)	(60,20)	(49,14)	(388,10)	(172,1)	(-5,24)	(59,8)	(292,4)	(53,6)	(41,6)	(176,14)	(1,7)	(5,4)	(380,12)	(2,12)	
L1D -175>	(-1,12)	(-5,97)	(175,53)	(-64,84)	(1,46)	(-19,1)	(5,12)	(31,1)	(2,59)	(-4,7)	(7,9)	(6,5)	(0,3)	(-103,1)	(-78,7)	(-6,4)	
L1D -174>	(-287,26)	(-5,111)	(174,89)	(-263,11)	(-6,1)	(1,46)	(7,16)	(-64,4)	(2,58)	(-1,3)	(-4,14)	(6,8)	(5,19)	(-279,28)	(163,74)	(175,9)	
L1D -173>	(-5,95)	(173,81)	(-4,17)	(1,58)	(2,70)	(42,1)	(6,13)	(7,22)	(5,43)	(-1,3)	(-64,14)	(174,15)	(-195,7)	(51,3)	(0,3)	(-6,4)	
L1D -172>	(173,1)	(2,61)	(48,7)	(0,8)	(-5,107)	(-64,56)	(1,73)	(172,65)	(-1,4)	(6,25)	(-4,12)	(3,7)	(190,2)	(184,4)	(5,56)	(7,44)	
L1D -171>	(0,15)	(-275,3)	(171,67)	(-5,73)	(245,1)	(-64,5)	(-1,5)	(6,41)	(1,99)	(7,25)	(172,22)	(51,14)	(-6,2)	(2,64)	(-4,12)	(5,54)	
L1D -170>	(170,44)	(-5,78)	(171,4)	(6,19)	(-1,13)	(-4,11)	(1,100)	(105,1)	(7,1)	(0,1)	(2,71)	(5,30)	(-64,8)	(-3,1)	(10,1)	(-6,1)	
L1D -169>	(-5,59)	(-1,5)	(169,31)	(1,95)	(170,7)	(-22,2)	(-30,6)	(49,2)	(-6,2)	(-14,2)	(-46,3)	(2,22)	(181,2)	(5,17)	(7,4)	(-4,5)	
L1D -168>	(-5,63)	(-1,1)	(1,114)	(168,31)	(0,3)	(-64,3)	(6,5)	(169,6)	(5,1)	(2,35)	(24,1)	(-4,4)	(-15,1)	(-6,2)	(7,1)	(-47,0)	
L1D -167>	(1,108)	(-5,56)	(0,3)	(-2,1)	(-34,2)	(-291,2)	(-64,4)	(10,2)	(-4,3)	(167,25)	(-10,1)	(168,2)	(-47,3)	(2,16)	(-45,2)	(-30,0)	
L1D -166>	(-5,57)	(-43,2)	(1,117)	(-295,2)	(166,23)	(2,26)	(-19,3)	(-35,14)	(-287,6)	(-45,2)	(-4,3)	(-271,3)	(167,4)	(-51,11)	(-46,3)	(-1,1)	
L1D -165>	(-5,44)	(-47,1)	(1,87)	(24,1)	(166,2)	(2,24)	(165,26)	(56,1)	(168,0)	(-4,3)	(-192,0)	(-3,1)	(0,1)	(-45,1)	(10,7)	(21,0)	
L1D -164>	(-16,2)	(-64,2)	(-5,42)	(1,65)	(2,48)	(164,97)	(165,3)	(24,1)	(-14,2)	(21,1)	(-215,8)	(-4,60)	(10,1)	(-231,38)	(-37,2)	(-6,2)	
L1D -163>	(191,61)	(192,37)	(187,97)	(163,125)	(-1,15)	(186,37)	(52,10)	(155,8)	(1,18)	(190,56)	(189,54)	(154,12)	(193,23)	(56,1)	(0,89)	(188,16)	
L1D -162>	(186,13)	(191,16)	(56,5)	(190,15)	(59,14)	(189,14)	(184,7)	(185,8)	(51,3)	(182,4)	(2,1)	(-229,2)	(1,78)	(193,2)	(0,16)	(187,12)	
L1D -161>	(208,1)	(128,2)	(174,1)	(24,1)	(1,115)	(237,1)	(10,1)	(21,1)	(181,6)	(-260,0)	(33,0)	(4,0)	(-20,0)	(-64,0)	(161,1)	(0,0)	
L1D -160>	(-64,5)	(9,4)	(181,1)	(-235,2)	(3,1)	(-187,1)	(121,2)	(24,1)	(160,2)	(0,6)	(1,68)	(-15,1)	(21,1)	(-46,1)	(-128,1)	(128,2)	
L1D -159>	(24,1)	(-103,1)	(7,2)	(21,2)	(1,93)	(-10,2)	(10,2)	(44,1)	(151,1)	(168,9)	(160,3)	(-1,1)	(6,1)	(40,1)	(34,1)	(-3,2)	
L1D -158>	(-256,1)	(-3,12)	(27,2)	(0,12)	(3,4)	(332,2)	(-233,1)	(-128,1)	(21,4)	(1,113)	(-4,2)	(-2,1)	(-303,3)	(10,2)	(-8,1)	(15,1)	
L1D -157>	(-9,1)	(-10,1)	(4,0)	(157,0)	(1,64)	(24,0)	(13,1)	(7,1)	(-128,2)	(10,4)	(-24,0)	(-4,0)	(6,0)	(-2,1)	(27,1)	(0,0)	
L1D -156>	(-128,6)	(16,4)	(-10,2)	(5,2)	(9,2)	(-6,3)	(6,3)	(28,3)	(-2,1)	(203,2)	(2,6)	(1,108)	(177,2)	(-8,15)	(-1,14)	(10,67)	
L1D -155>	(-1,14)	(1,18)	(5,65)	(157,11)	(8,2)	(9,3)	(10,108)	(2,3)	(44,3)	(-7,12)	(151,2)	(0,3)	(-8,51)	(-128,7)	(7,11)	(135,2)	
L1D -154>	(24,1)	(0,1)	(7,11)	(156,6)	(-7,1)	(-9,1)	(14,5)	(133,1)	(134,1)	(-35,1)	(2,3)	(136,1)	(-3,4)	(10,78)	(-95,1)	(25,2)	
L1D -153>	(9,5)	(7,6)	(0,13)	(128,1)	(163,91)	(10,116)	(13,3)	(-139,17)	(4,4)	(-11,3)	(24,17)	(2,11)	(120,6)	(-4,3)	(155,13)	(-8,5)	
L1D -152>	(10,98)	(156,1)	(2,21)	(9,6)	(0,9)	(-35,5)	(4,4)	(-15,5)	(24,12)	(-3,23)	(-13,6)	(-7,2)	(1,2)	(154,8)	(7,7)	(-64,7)	
L1D -151>	(-1,5)	(-309,7)	(-8,18)	(148,10)	(-20,3)	(-11,5)	(0,12)	(-4,6)	(-19,9)	(153,1)	(4,51)	(54,2)	(-132,3)	(24,25)	(2,39)	(-26,2)	
L1D -150>	(1,24)	(-19,16)	(-7,1)	(4,45)	(0,31)	(3,25)	(-6,103)	(2,9)	(-1,30)	(16,32)	(324,11)	(7,59)	(-4,28)	(13,46)	(-2,45)	(150,14)	
L1D -149>	(0,113)	(54,1)	(136,5)	(1,115)	(-50,6)	(-5,7)	(7,37)	(8,37)	(-3,9)	(-19,23)	(128,10)	(-20,11)	(4,8)	(-64,5)	(151,6)	(-139,4)	
L1D -148>	(-128,81)	(0,19)	(8,1)	(148,10)	(146,16)	(169,5)	(-15,13)	(7,24)	(1,47)	(-10,9)	(-139,7)	(-26,5)	(3,3)	(-19,21)	(-3,3)	(-20,8)	
L1D -147>	(64,11)	(-23,5)	(-64,19)	(-19,49)	(11,17)	(1,11)	(-2,13)	(-128,12)	(7,56)	(-20,27)	(132,46)	(0,33)	(8,22)	(24,1)	(-9,6)	(2,4)	
L1D -146>	(148,1)	(421,5)	(-128,11)	(1,86)	(-16,9)	(0,16)	(-15,9)	(-19,38)	(-20,25)	(-4,15)	(-1,12)	(-3,37)	(147,42)	(9,120)	(7,16)	(-64,10)	
L1D -145>	(64,5)	(0,62)	(8,15)	(-2,8)	(-27,9)	(-13,13)	(-20,57)	(-26,5)	(-35,7)	(-22,1)	(-19,69)	(-16,42)	(1,12)	(4,8)	(-15,12)	(-25,8)	
L1D -144>	(-207,4)	(-9,38)	(-37,8)	(-15,10)	(0,55)	(148,7)	(-20,74)	(-16,31)	(-63,22)	(-64,29)	(-25,10)	(-19,67)	(-14,9)	(-26,4)	(9,20)	(133,5)	
L1D -143>	(0,73)	(144,7)	(-24,1)	(-19,38)	(-15,3)	(8,26)	(-14,2)	(-16,11)	(-1,35)	(-9,4)	(5,3)	(-59,7)	(-61,23)	(139,2)	(-20,37)	(143,6)	
L1D -142>	(-15,10)	(11,9)	(0,29)	(-25,6)	(-59,1)	(-5,6)	(1,5)	(-20,75)	(-1,6)	(-16,43)	(-64,9)	(2,11)	(-19,75)	(47,17)	(7,40)	(-22,4)	
L1D -141>	(2,36)	(135,8)	(-128,9)	(-22,10)	(0,63)	(-64,1)	(8,6)	(-20,76)	(-8,18)	(134,11)	(136,9)	(-19,70)	(-27,5)	(-16,59)	(133,11)	(16,8)	
L1D -140>	(133,10)	(134,13)	(2,43)	(135,8)	(-16,33)	(-17,74)	(137,6)	(0,62)	(-19,81)	(-20,69)	(11,86)	(-22,7)	(-64,26)	(1,20)	(8,71)	(-7,1)	
L1D -139>	(-10,4)	(-4,6)	(2,4)	(-128,7)	(10,4)	(139,3)	(8,9)	(-1,93)	(-5,4)	(-15,3)	(4,5)	(-19,6)	(-16,2)	(0,1)	(-20,4)	(133,1)	
L1D -138>	(-59,35)	(135,49)	(-1,4)	(5,3)	(137,5)	(133,14)	(2,43)	(-93,4)	(-128,1)	(0,19)	(-20,48)	(64,7)	(134,28)	(-64,3)	(-19,87)	(-16,34)	
L1D -137>	(133,22)	(2,65)	(-22,2)	(1,4)	(-19,68)	(-3,2)	(-149,1)	(-2,4)	(140,42)	(-16,20)	(-20,38)	(0,18)	(9,1)	(137,19)	(139,24)	(8,9)	
L1D -136>	(-16,9)	(133,2)	(144,31)	(135,3)	(139,9)	(4,11)	(137,2)	(16,112)	(-20,25)	(-19,29)	(0,6)	(15,3)	(134,7)	(-59,1)	(136,12)	(2,20)	
L1D -135>	(15,10)	(219,8)	(2,20)	(-93,5)	(-16,26)	(-1,7)	(134,11)	(0,34)	(133,24)	(-8,22)	(-3,5)	(-19,81)	(-20,72)	(135,23)	(-7,7)	(138,1)	
L1D -134>	(14,26)	(2,52)	(218,27)	(-93,3)	(-89,4)	(-20,104)	(-3,42)	(0,28)	(219,10)	(-19,88)	(1,1)	(134,26)	(133,8)	(8,12)	(-16,29)	(13,30)	
L1D -133>	(218,4)	(-19,7)	(132,99)	(133,6)	(130,88)	(0,8)	(-20,11)	(-16,2)	(52,2)	(122,1)	(13,4)	(2,5)	(217,1)	(1,3)	(-7,1)	(8,3)	
L1D -132>	(3,1)	(132,112)	(0,14)	(217,17)	(2,5)	(-2,4)	(122,4)	(8,44)	(-20,48)	(19,4)	(-16,18)	(-4,2)	(-8,2)	(-19,80)	(130,21)	(218,7)	
L1D -131>	(131,3)	(128,3)	(-10,2)	(-59,2)	(2,1)	(-20,116)	(-13,4)	(-31,3)	(-11,1)	(217,35)	(-27,4)	(-62,1)	(1,10)	(216,5)	(-8,4)	(-16,40)	
L1D -130>	(132,44)	(130,22)	(218,15)	(-10,50)	(216,37)	(-128,13)	(-16,41)	(-40,14)	(0,7)	(1,1)	(-14,13)	(-20,105)	(21,6)	(-64,6)	(-65,6)	(-31,4)	
L1D -129>	(-149,7)	(0,18)	(80,9)	(129,94)	(24,1)	(-64,5)	(-24,5)	(-1,4)	(-16,22)	(9,3)	(134,1)	(218,6)	(72,7)	(21,5)	(97,2)	(217,3)	
L1D -128>	(7,32)	(16,36)	(8,11)	(0,34)	(6,22)	(24,13)	(258,15)	(9,24)	(-16,6)	(128,102)	(17,9)	(-1,16)	(10,7)	(125,6)	(23,18)	(267,17)	
L1D -127>	(127,30)	(132,38)	(5,10)	(0,33)	(218,81)	(217,13)	(2,19)	(4,3)	(1,19)	(-41,3)	(113,5)	(136,1)	(-30,2)	(-105,9)	(83,8)	(-27,4)	
L1D -126>	(0,5)	(-179,3)	(220,96)	(127,7)	(217,7)	(3,2)	(349,2)	(123,1)	(1,7)	(-27,56)	(336,2)	(132,3)	(-8,8)	(126,11)	(-135,1)	(-60,3)	
L1D -125>	(126,69)	(1,5)	(129,10)	(219,63)	(216,14)	(127,10)	(254,1)	(8,13)	(-243,5)	(-64,6)	(-1,21)	(0,29)	(-3,3)	(-8,12)	(3,11)	(125,26)	
L1D -124>	(218,43)	(124,6)	(140,1)	(137,4)	(2,1)	(107,3)	(216,1)	(-7,1)	(-1,2)	(8,69)	(-44,3)	(0,5)	(126,3)	(7,2)	(125,20)	(-64,1)	
L1D -123>	(123,79)	(-70,10)	(-38,5)	(331,2)	(3,11)	(-5,6)	(110,46)	(111,7)	(-7,20)	(1,6)	(10,1)	(112,4)	(0,9)	(-71,3)	(-72,3)	(217,10)	
L1D -122>	(124,68)	(122,97)	(111,48)	(14,16)	(130,64)	(50,1)	(125,37)	(3,17)	(110,11)	(2,28)	(0,32)	(113,9)	(64,52)	(4,20)	(132,43)	(-8,6)	
L1D -121>	(111,22)	(64,96)	(215,39)	(122,13)	(-8,1)	(118,8)	(219,8)	(-5,5)	(121,74)	(8,7)	(124,4)	(110,8)	(119,8)	(1,7)	(-2,4)	(0,15)	
L1D -120>	(0,18)	(120,14)	(-14,12)	(117,1)	(111,3)	(2,8)	(-24,5)	(4,3)	(-16,87)	(-23,2)	(-6,2)	(3,4)	(-5,1)	(328,1)	(1,9)	(-25,3)	
L1D -119>	(67,1)	(110,78)	(213,46)	(-103,9)	(-212,18)	(-8,5)	(119,123)	(1,38)	(2,38)	(218,28)	(111,40)	(-213,10)	(5,51)	(0,78)	(-4,71)	(3,32)	
L1D -118>	(118,126)	(130,6)	(116,3)	(-5,11)	(105,16)	(120,1)	(329,11)	(115,4)	(64,20)	(-1,7)	(326,9)	(212,21)	(117,3)	(217,8)	(119,3)	(335,3)	
L1D -117>	(117,83)	(113,5)	(218,5)	(-3,11)	(3,8)	(0,9)	(-6,3)	(328,4)	(108,4)	(105,3)	(114,10)	(111,7)	(18,3)	(-248,1)	(334,2)	(-2,8)	
L1D -116>	(116,67)	(-8,27)	(112,8)	(111,19)	(3,55)	(115,12)	(-261,4)	(107,28)	(210,13)	(0,34)	(219,54)	(119,10)	(2,19)	(220,1)	(113,88)	(110,80)	
L1D -115>	(64,5)	(-16,5)	(-105,12)	(218,48)	(116,28)	(3,20)	(0,25)	(115,67)	(209,10)	(217,14)	(5,4)	(105,3)	(-1,5)	(113,35)	(112,61)	(-4,4)	
L1D -114>	(114,94)	(122,5)	(-6,17)	(3,30)	(218,19)	(-5,6)	(-16,25)	(110,39)	(1,10)	(111,35)	(108,21)	(105,9)	(219,7)	(329,14)	(7,1)	(208,19)	
L1D -113>	(-16,1)	(3,14)	(113,95)	(0,14)	(2,12)	(119,6)	(123,4)	(110,64)	(105,13)	(207,9)	(108,27)	(-3,9)	(217,13)	(218,13)	(38,6)	(111,34)	
L1D -112>	(1,7)	(2,9)	(112,80)	(0,7)	(3,16)	(-5,104)	(113,42)	(-115,1)	(108,31)	(110,46)	(217,20)	(-1,6)	(216,11)	(218,10)	(64,54)	(37,5)	
L1D -111>	(329,19)	(111,105)	(108,24)	(3,14)	(442,1)	(334,24)	(110,14)	(332,19)	(0,38)	(216,27)	(-2,11)	(-5,32)	(204,9)	(-6,13)	(105,12)	(-3,13)	
L1D -110>	(113,6)	(116,7)	(0,9)	(-3,10)	(331,15)	(105,1)	(332,4)	(328,8)	(329,4)	(107,7)	(110,68)	(3,8)	(111,12)	(-8,7)	(213,2)	(2,5)	
L1D -109>	(329,7)	(111,22)	(109,115)	(198,12)	(-5,17)	(-8,27)	(110,13)	(212,21)	(193,27)	(217,2)	(105,19)	(113,23)	(216,69)	(0,25)	(-81,6)	(3,28)	
L1D -108>	(118,11)	(193,8)	(-5,48)	(0,11)	(192,18)	(111,20)	(212,1)	(113,11)	(108,90)	(121,4)	(110,37)	(191,8)	(117,6)	(114,18)	(105,16)	(-6,70)	
L1D -107>	(-109,2)	(110,111)	(107,104)	(111,78)	(193,79)	(-108,15)	(200,43)	(3,14)	(0,13)	(192,35)	(13,22)	(212,27)	(108,5)	(113,34)	(2,8)	(120,42)	
L1D -106>	(-5,15)	(106,73)	(-110,1)	(0,25)	(12,22)	(329,5)	(3,47)	(102,50)	(105,16)	(111,47)	(-6,18)	(117,34)	(195,52)	(110,30)	(-2,3)	(-109,43)	
L1D -105>	(0,20)	(-1,47)	(-111,32)	(64,9)	(191,5)	(221,34)	(-5,97)	(114,117)	(110,32)	(111,87)	(194,19)	(198,12)	(105,111)	(-6,9)	(-24,1)	(113,5)	
L1D -104>	(331,6)	(193,116)	(64,28)	(-7,9)	(218,22)	(-6,8)	(9,8)	(113,51)	(0,7)	(108,35)	(104,83)	(221,1)	(-113,20)	(-112,14)	(10,17)	(2,10)	
L1D -103>	(0,29)	(-112,9)	(219,76)	(192,117)	(-5,37)	(-1,108)	(2,2)	(-111,4)	(-16,5)	(-113,21)	(218,23)	(-110,5)	(103,17)	(-114,11)	(64,13)	(-6,9)	
L1D -102>	(191,93)	(102,13)	(-16,1)	(110,30)	(8,4)	(-5,86)	(218,2)	(-114,14)	(0,5)	(111,23)	(-3,8)	(192,22)	(-6,24)	(64,17)	(-1,13)	(-113,6)	
L1D -101>	(102,30)	(-2,8)	(68,94)	(1,8)	(-115,27)	(64,18)	(0,36)	(101,57)	(-3,13)	(111,27)	(2,1)	(16,2)	(-16,4)	(-257,2)	(-24,7)	(-1,45)	
L1D -100>	(-85,1)	(6,28)	(12,4)	(193,119)	(1,9)	(85,5)	(-116,115)	(224,5)	(0,47)	(114,7)	(218,8)	(-117,66)	(110,12)	(-21,4)	(100,21)	(-5,46)	
L1D -99>	(-113,11)	(-9,46)	(192,122)	(113,9)	(0,17)	(12,3)	(-5,32)	(-32,8)	(220,17)	(99,26)	(107,1)	(-114,16)	(218,4)	(223,5)	(-272,2)	(100,24)	
L1D -98>	(12,5)	(-119,61)	(99,1)	(124,3)	(192,19)	(33,5)	(-118,47)	(4,4)	(0,30)	(92,23)	(191,28)	(-32,10)	(-9,14)	(221,10)	(-117,8)	(-120,15)	
L1D -97>	(95,8)	(105,7)	(101,23)	(88,13)	(-35,24)	(0,19)	(-119,35)	(-32,1)	(-121,8)	(64,28)	(1,45)	(-118,15)	(-1,46)	(-120,42)	(99,12)	(54,9)	
L1D -96>	(97,32)	(184,5)	(207,5)	(88,24)	(0,34)	(-7,7)	(110,6)	(113,5)	(96,23)	(64,40)	(-43,17)	(224,5)	(1,14)	(176,4)	(101,8)	(-8,1)	
L1D -95>	(1,3)	(-1,4)	(97,3)	(99,1)	(-3,1)	(9,2)	(4,2)	(64,65)	(-8,1)	(32,0)	(54,1)	(260,1)	(0,13)	(108,1)	(96,0)	(95,1)	
L1D -94>	(-118,32)	(210,22)	(225,2)	(-121,25)	(-123,15)	(-120,17)	(-119,26)	(209,46)	(215,50)	(211,104)	(208,36)	(-110,14)	(-116,36)	(217,39)	(218,45)	(94,30)	
L1D -93>	(64,12)	(231,2)	(-108,86)	(6,4)	(-100,9)	(93,9)	(222,7)	(9,7)	(221,5)	(-111,4)	(-124,2)	(-110,2)	(-2,12)	(96,2)	(-125,1)	(3,1)	
L1D -92>	(0,110)	(46,8)	(4,16)	(111,6)	(-124,74)	(76,10)	(129,1)	(253,32)	(-257,4)	(75,17)	(223,8)	(89,53)	(-1,7)	(64,74)	(-41,7)	(212,23)	
L1D -91>	(67,19)	(64,78)	(-117,10)	(0,28)	(-124,81)	(-109,8)	(9,11)	(-122,1)	(12,7)	(82,3)	(109,3)	(98,3)	(-1,8)	(-5,12)	(-2,11)	(-118,8)	
L1D -90>	(221,7)	(64,1)	(223,20)	(-127,83)	(219,4)	(80,19)	(-111,9)	(-105,20)	(-126,58)	(210,35)	(-108,60)	(-128,14)	(0,23)	(224,38)	(-125,14)	(6,60)	
L1D -89>	(0,2)	(-112,50)	(-104,50)	(89,46)	(64,5)	(9,4)	(-40,1)	(-108,22)	(227,14)	(223,11)	(-4,10)	(-102,4)	(-111,13)	(4,16)	(220,54)	(80,89)	
L1D -88>	(-110,2)	(64,90)	(8,1)	(219,4)	(-8,1)	(0,6)	(-5,1)	(-130,1)	(-129,6)	(1,3)	(121,2)	(208,2)	(129,0)	(-26,0)	(-128,1)	(-305,0)	
L1D -87>	(0,34)	(224,50)	(225,3)	(-93,3)	(42,7)	(90,4)	(64,62)	(8,18)	(-128,1)	(221,14)	(135,2)	(-111,3)	(251,3)	(80,19)	(-14,7)	(-6,13)	
L1D -86>	(90,23)	(64,127)	(-3,12)	(-131,1)	(0,64)	(92,3)	(82,8)	(42,3)	(8,66)	(-1,69)	(141,3)	(4,14)	(86,59)	(225,6)	(182,3)	(-279,5)	
L1D -85>	(42,27)	(-14,1)	(221,11)	(-16,3)	(59,2)	(0,16)	(-133,5)	(218,3)	(-1,3)	(-132,18)	(-108,67)	(-131,31)	(-111,7)	(64,11)	(219,53)	(-130,40)	
L1D -84>	(42,106)	(225,24)	(-133,118)	(1,25)	(-109,67)	(-289,6)	(64,14)	(43,9)	(-131,16)	(218,87)	(72,12)	(212,11)	(148,1)	(-132,111)	(-134,22)	(-111,16)	
L1D -83>	(42,73)	(64,1)	(9,6)	(0,39)	(196,32)	(43,6)	(41,3)	(-48,9)	(-134,62)	(209,11)	(-133,56)	(-135,19)	(1,42)	(-132,7)	(72,55)	(-111,38)	
L1D -82>	(42,76)	(40,5)	(0,21)	(18,3)	(-16,4)	(83,5)	(210,18)	(66,16)	(64,17)	(81,40)	(-24,4)	(72,20)	(-9,9)	(-7,6)	(3,1)	(74,21)	
L1D -81>	(-2,1)	(-21,1)	(-27,5)	(0,3)	(90,4)	(80,2)	(64,12)	(-128,1)	(37,1)	(-8,4)	(72,92)	(-13,3)	(11,2)	(226,1)	(-1,2)	(-48,1)	
L1D -80>	(-27,1)	(64,70)	(56,0)	(82,0)	(72,0)	(24,0)	(31,0)	(-8,0)	(308,0)	(0,10)	(60,0)	(7,0)	(208,0)	(250,1)	(5,0)	(80,0)	
L1D -79>	(-248,0)	(194,0)	(15,0)	(64,65)	(-1,9)	(0,2)	(-3,3)	(-2,0)	(-4,1)	(-5,2)	(79,1)	(-13,0)	(16,0)	(-36,0)	(1,0)	(120,0)	
L1D -78>	(42,3)	(200,2)	(73,2)	(-6,6)	(36,18)	(0,10)	(8,9)	(62,3)	(-3,53)	(-1,109)	(16,1)	(-24,4)	(78,1)	(24,2)	(129,1)	(70,3)	
L1D -77>	(77,7)	(0,23)	(-3,37)	(-1,109)	(1,27)	(56,25)	(84,9)	(82,24)	(64,23)	(197,1)	(-228,6)	(68,14)	(86,5)	(130,21)	(75,3)	(129,10)	
L1D -76>	(84,3)	(2,1)	(1,5)	(12,3)	(-1,32)	(129,119)	(0,41)	(27,5)	(73,17)	(64,8)	(28,5)	(-3,2)	(10,4)	(80,2)	(130,2)	(39,2)	
L1D -75>	(2,6)	(9,5)	(18,48)	(1,18)	(75,53)	(130,7)	(-1,21)	(0,39)	(3,6)	(5,1)	(84,15)	(129,78)	(263,23)	(133,12)	(64,73)	(-277,2)	
L1D -74>	(259,6)	(0,52)	(74,76)	(-1,16)	(75,51)	(84,4)	(2,8)	(193,4)	(209,4)	(13,36)	(-278,3)	(129,106)	(64,23)	(200,5)	(1,12)	(112,8)	
L1D -73>	(64,65)	(0,34)	(1,47)	(192,7)	(-1,74)	(130,20)	(193,1)	(2,9)	(129,121)	(76,5)	(9,2)	(74,2)	(4,17)	(24,22)	(73,14)	(322,2)	
L1D -72>	(64,91)	(72,6)	(-258,1)	(0,5)	(99,0)	(-1,1)	(1,12)	(-36,0)	(67,1)	(257,3)	(250,1)	(-2,3)	(321,0)	(129,14)	(264,1)	(367,0)	
L1D -71>	(64,14)	(1,108)	(130,53)	(86,2)	(0,7)	(48,1)	(-1,5)	(10,1)	(107,1)	(71,6)	(-36,1)	(92,0)	(40,1)	(-6,0)	(72,0)	(-22,0)	
L1D -70>	(72,1)	(-2,1)	(129,117)	(0,23)	(-1,10)	(64,0)	(97,2)	(132,2)	(196,0)	(1,4)	(76,0)	(21,0)	(-10,0)	(95,0)	(-25,0)	(-5,0)	
L1D -69>	(5,21)	(64,16)	(-64,6)	(60,16)	(63,8)	(70,16)	(-3,4)	(1,1)	(74,27)	(68,15)	(35,7)	(-16,7)	(12,38)	(10,11)	(128,10)	(0,61)	
L1D -68>	(179,10)	(60,13)	(75,67)	(-36,5)	(-7,41)	(64,35)	(1,19)	(22,4)	(-8,109)	(17,18)	(-18,22)	(-255,1)	(53,10)	(13,34)	(204,3)	(24,7)	
L1D -67>	(67,10)	(-4,3)	(-248,10)	(-15,51)	(179,6)	(9,2)	(0,99)	(49,18)	(64,27)	(16,2)	(-16,1)	(24,1)	(1,1)	(196,1)	(194,1)	(-1,1)	
L1D -66>	(199,10)	(57,12)	(1,52)	(64,27)	(8,6)	(-8,45)	(73,60)	(-9,23)	(-10,40)	(13,7)	(0,37)	(72,16)	(69,6)	(65,32)	(12,6)	(4,1)	
L1D -65>	(64,127)	(169,2)	(1,78)	(10,2)	(-8,6)	(68,1)	(0,2)	(65,2)	(72,7)	(69,1)	(-7,15)	(-248,4)	(70,7)	(4,1)	(2,38)	(-6,1)	
L1D -64>	(73,19)	(72,127)	(264,15)	(312,4)	(64,88)	(296,1)	(-64,49)	(1,28)	(232,74)	(66,13)	(248,8)	(280,12)	(68,23)	(74,37)	(0,36)	(75,20)	
L1D -63>	(64,45)	(-1,8)	(0,4)	(-264,1)	(84,1)	(-200,2)	(-16,4)	(12,14)	(5,3)	(191,24)	(-8,2)	(63,2)	(1,75)	(60,1)	(87,1)	(171,1)	
L1D -62>	(4,1)	(-1,1)	(64,12)	(62,89)	(0,4)	(63,0)	(1,11)	(23,0)	(236,0)	(77,0)	(-64,0)	(60,0)	(-31,0)	(-70,5)	(-14,0)	(20,0)	
L1D -61>	(6,1)	(7,0)	(58,80)	(1,5)	(39,0)	(69,1)	(38,0)	(-18,1)	(-1,0)	(-219,0)	(-218,0)	(64,8)	(5,3)	(61,0)	(0,2)	(12,11)	
L1D -60>	(62,63)	(204,28)	(1,68)	(-12,11)	(-218,10)	(0,52)	(3,3)	(60,42)	(-1,14)	(-277,12)	(63,30)	(64,124)	(-33,6)	(-84,2)	(48,7)	(61,14)	
L1D -59>	(-22,8)	(48,15)	(56,1)	(112,99)	(-8,10)	(1,54)	(-27,5)	(-5,12)	(-15,2)	(-219,5)	(0,37)	(64,15)	(-10,17)	(-181,6)	(-33,3)	(-260,2)	
L1D -58>	(47,27)	(2,7)	(1,56)	(-35,34)	(58,40)	(48,10)	(229,3)	(-1,12)	(0,31)	(12,10)	(-71,26)	(64,87)	(5,14)	(-8,38)	(68,1)	(56,8)	
L1D -57>	(57,70)	(0,11)	(47,46)	(64,86)	(1,10)	(49,2)	(2,9)	(55,42)	(44,3)	(-72,104)	(42,6)	(-2,16)	(-218,5)	(-73,12)	(46,33)	(21,1)	
L1D -56>	(7,5)	(66,9)	(64,105)	(43,2)	(-3,3)	(-73,23)	(129,1)	(65,5)	(1,13)	(60,2)	(0,12)	(56,12)	(46,25)	(388,9)	(54,26)	(112,46)	
L1D -55>	(55,29)	(3,1)	(40,42)	(45,10)	(53,9)	(32,21)	(28,3)	(0,17)	(1,80)	(-1,22)	(64,22)	(42,4)	(191,5)	(46,23)	(-74,6)	(-83,12)	
L1D -54>	(31,63)	(43,10)	(-218,7)	(39,121)	(25,9)	(64,26)	(0,16)	(1,53)	(82,1)	(52,4)	(54,28)	(-5,2)	(-84,37)	(99,5)	(44,6)	(-75,27)	
L1D -53>	(45,9)	(21,2)	(2,2)	(1,60)	(-75,1)	(53,40)	(43,5)	(0,37)	(42,72)	(62,57)	(-76,123)	(-77,11)	(-84,12)	(51,22)	(-3,33)	(-18,19)	
L1D -52>	(62,16)	(5,20)	(12,14)	(-7,98)	(64,81)	(49,1)	(52,4)	(41,23)	(1,26)	(-29,4)	(0,6)	(-218,3)	(42,28)	(50,23)	(247,7)	(-85,10)	
L1D -51>	(-42,6)	(-248,11)	(30,32)	(0,12)	(39,33)	(-85,18)	(42,1)	(28,17)	(-41,6)	(-34,8)	(11,2)	(53,7)	(49,32)	(-8,109)	(36,28)	(-1,59)	
L1D -50>	(64,19)	(51,11)	(1,56)	(-9,26)	(-218,17)	(40,6)	(46,18)	(27,26)	(48,6)	(42,10)	(35,99)	(29,43)	(39,21)	(38,1)	(0,29)	(31,48)	
L1D -49>	(-219,6)	(64,16)	(-9,2)	(-8,4)	(66,2)	(39,14)	(-218,11)	(30,9)	(12,1)	(14,1)	(4,2)	(-10,117)	(0,10)	(2,13)	(47,18)	(1,18)	
L1D -48>	(1,46)	(380,20)	(-218,19)	(-1,11)	(112,57)	(64,63)	(-220,11)	(-219,8)	(53,73)	(39,5)	(56,2)	(58,5)	(38,5)	(-32,2)	(0,66)	(-11,8)	
L1D -47>	(43,12)	(11,6)	(245,20)	(47,18)	(34,34)	(1,90)	(2,54)	(64,21)	(36,13)	(35,26)	(0,17)	(57,63)	(45,14)	(-18,14)	(32,1)	(26,8)	
L1D -46>	(1,59)	(-218,4)	(44,22)	(56,18)	(2,39)	(17,4)	(-13,63)	(4,59)	(36,18)	(0,4)	(-219,6)	(48,85)	(27,1)	(57,6)	(-18,2)	(46,2)	
L1D -45>	(-14,20)	(8,2)	(154,5)	(22,7)	(25,7)	(30,1)	(21,2)	(44,13)	(-292,1)	(26,15)	(32,1)	(34,7)	(64,5)	(1,87)	(55,18)	(62,6)	
L1D -44>	(0,7)	(2,45)	(43,5)	(25,3)	(34,4)	(6,5)	(5,1)	(42,4)	(-15,58)	(-89,1)	(51,2)	(-162,1)	(46,111)	(4,22)	(1,57)	(48,1)	
L1D -43>	(45,103)	(4,1)	(44,8)	(92,1)	(50,2)	(3,67)	(30,1)	(8,4)	(42,0)	(51,3)	(1,19)	(41,0)	(2,37)	(9,0)	(53,0)	(5,0)	
L1D -42>	(23,0)	(44,93)	(50,5)	(51,3)	(43,40)	(53,0)	(1,16)	(-11,0)	(4,1)	(49,0)	(2,40)	(7,3)	(45,28)	(3,8)	(41,10)	(8,1)	
L1D -41>	(49,0)	(-1,4)	(-9,0)	(43,9)	(42,15)	(44,64)	(-90,0)	(64,6)	(0,7)	(-218,1)	(50,3)	(52,2)	(2,11)	(40,11)	(242,0)	(1,17)	
L1D -40>	(44,13)	(39,42)	(0,17)	(43,9)	(1,63)	(52,114)	(64,17)	(159,5)	(-3,7)	(-19,6)	(48,1)	(42,79)	(5,19)	(112,22)	(41,10)	(-9,11)	
L1D -39>	(-9,1)	(-20,5)	(42,75)	(43,4)	(-21,1)	(0,2)	(-40,3)	(26,1)	(38,4)	(-1,14)	(-6,2)	(-35,1)	(1,18)	(46,4)	(49,5)	(41,12)	
L1D -38>	(11,8)	(18,5)	(55,3)	(0,3)	(-92,1)	(75,4)	(16,31)	(1,32)	(48,1)	(34,32)	(38,2)	(150,1)	(15,1)	(22,71)	(30,46)	(2,4)	
L1D -37>	(56,5)	(20,24)	(-219,2)	(16,7)	(1,58)	(34,56)	(47,1)	(27,17)	(-1,10)	(15,6)	(-22,39)	(36,78)	(23,51)	(35,12)	(-8,2)	(0,7)	
L1D -36>	(34,5)	(-23,25)	(36,5)	(26,12)	(38,42)	(13,4)	(2,81)	(4,16)	(46,41)	(-6,58)	(31,5)	(35,61)	(10,12)	(44,67)	(-25,1)	(-42,51)	
L1D -35>	(-264,14)	(-1,22)	(10,4)	(3,11)	(64,4)	(2,16)	(34,3)	(42,6)	(0,5)	(30,2)	(-5,98)	(4,9)	(21,100)	(1,99)	(35,6)	(22,1)	
L1D -34>	(2,16)	(-25,123)	(18,6)	(0,1)	(42,10)	(10,2)	(43,3)	(36,3)	(44,6)	(32,10)	(34,14)	(1,4)	(33,6)	(4,6)	(24,9)	(3,3)	
L1D -33>	(-1,19)	(1,102)	(9,27)	(43,10)	(33,113)	(2,38)	(-9,27)	(10,43)	(34,55)	(64,31)	(4,8)	(55,3)	(-26,12)	(22,34)	(32,28)	(39,17)	
L1D -32>	(112,6)	(33,7)	(40,1)	(1,17)	(2,9)	(30,23)	(10,12)	(0,25)	(22,20)	(-27,95)	(31,15)	(292,30)	(32,12)	(41,76)	(36,7)	(4,17)	
L1D -31>	(59,26)	(27,5)	(1,43)	(0,3)	(-70,15)	(9,12)	(23,3)	(7,67)	(18,1)	(15,12)	(4,21)	(-28,34)	(32,74)	(31,7)	(11,100)	(30,117)	
L1D -30>	(19,5)	(8,9)	(0,10)	(1,85)	(59,47)	(-70,27)	(39,8)	(-71,7)	(-5,5)	(2,18)	(7,19)	(3,1)	(14,10)	(-29,10)	(10,35)	(30,39)	
L1D -29>	(15,9)	(0,15)	(1,35)	(29,8)	(-30,72)	(55,13)	(-1,5)	(27,5)	(64,3)	(9,7)	(30,4)	(31,1)	(-9,127)	(-17,25)	(-219,16)	(19,18)	
L1D -28>	(1,88)	(-31,25)	(0,6)	(3,1)	(12,67)	(7,2)	(2,3)	(11,4)	(18,12)	(59,7)	(5,2)	(-2,20)	(26,4)	(-70,9)	(-4,5)	(27,3)	
L1D -27>	(1,56)	(27,3)	(36,2)	(0,14)	(59,29)	(37,5)	(9,2)	(-8,3)	(4,86)	(5,106)	(-31,5)	(10,25)	(13,28)	(12,12)	(-1,3)	(-70,28)	
L1D -26>	(1,125)	(11,2)	(36,2)	(24,4)	(5,5)	(35,7)	(-256,1)	(23,8)	(10,2)	(17,2)	(13,4)	(27,2)	(0,4)	(18,1)	(22,6)	(26,4)	
L1D -25>	(-7,34)	(13,22)	(59,69)	(5,50)	(21,10)	(10,4)	(22,94)	(23,17)	(1,48)	(-6,38)	(31,91)	(30,22)	(12,13)	(-70,106)	(-71,9)	(25,19)	
L1D -24>	(8,113)	(32,1)	(4,7)	(41,17)	(-6,8)	(6,8)	(12,37)	(5,3)	(1,12)	(-18,3)	(-26,7)	(24,46)	(25,21)	(13,39)	(-7,4)	(9,7)	
L1D -23>	(5,19)	(8,117)	(0,12)	(-1,1)	(11,2)	(12,1)	(23,1)	(3,1)	(15,1)	(10,1)	(26,0)	(24,2)	(-332,0)	(1,3)	(-7,0)	(-163,0)	
L1D -22>	(1,103)	(33,4)	(-13,2)	(5,1)	(0,17)	(32,7)	(59,2)	(11,7)	(21,5)	(-9,6)	(23,5)	(22,10)	(2,11)	(-70,7)	(-163,8)	(-7,20)	
L1D -21>	(13,64)	(-4,15)	(-23,14)	(-3,24)	(1,86)	(68,1)	(-10,3)	(2,34)	(-11,8)	(0,35)	(21,106)	(6,70)	(5,18)	(22,32)	(4,55)	(7,10)	
L1D -20>	(1,32)	(0,13)	(20,19)	(4,16)	(46,4)	(21,3)	(-332,2)	(-2,6)	(11,2)	(2,6)	(24,8)	(3,5)	(-70,6)	(-4,1)	(-1,2)	(15,122)	
L1D -19>	(18,13)	(0,13)	(5,27)	(151,11)	(29,9)	(1,92)	(161,1)	(25,48)	(23,10)	(-5,3)	(15,3)	(153,5)	(21,29)	(19,18)	(156,5)	(2,77)	
L1D -18>	(27,1)	(1,16)	(19,3)	(28,1)	(18,4)	(4,6)	(9,1)	(-9,1)	(17,2)	(11,1)	(-2,1)	(6,3)	(12,1)	(-6,105)	(24,1)	(31,1)	
L1D -17>	(8,19)	(14,27)	(2,1)	(9,104)	(0,1)	(-7,2)	(1,2)	(-2,0)	(27,1)	(-111,0)	(3,0)	(17,97)	(18,0)	(6,3)	(7,1)	(-1,1)	
L1D -16>	(20,4)	(-2,12)	(1,7)	(10,4)	(0,5)	(12,72)	(8,9)	(5,9)	(144,11)	(2,1)	(16,12)	(21,8)	(24,2)	(-9,57)	(-5,13)	(29,23)	
L1D -15>	(-9,64)	(11,1)	(-6,3)	(-10,0)	(-33,0)	(-130,1)	(41,2)	(154,1)	(-8,16)	(23,1)	(15,7)	(1,3)	(-14,0)	(5,0)	(0,4)	(9,0)	
L1D -14>	(6,6)	(24,8)	(-2,31)	(20,5)	(9,84)	(16,9)	(13,1)	(15,5)	(0,33)	(14,83)	(1,64)	(2,8)	(30,4)	(282,6)	(-332,3)	(23,10)	
L1D -13>	(4,64)	(-1,5)	(8,6)	(13,51)	(0,16)	(6,11)	(15,2)	(7,9)	(12,8)	(-70,10)	(5,30)	(2,11)	(59,9)	(1,28)	(18,0)	(10,19)	
L1D -12>	(120,3)	(17,20)	(4,4)	(-16,90)	(6,18)	(1,2)	(7,2)	(0,12)	(11,8)	(-32,10)	(2,7)	(-2,5)	(-47,1)	(-223,2)	(12,10)	(16,1)	
L1D -11>	(21,5)	(9,16)	(-1,9)	(1,78)	(0,43)	(6,56)	(30,1)	(-2,8)	(15,22)	(-8,7)	(12,67)	(10,23)	(5,3)	(11,15)	(2,21)	(-40,24)	
L1D -10>	(8,17)	(23,18)	(7,9)	(-1,7)	(2,82)	(1,50)	(6,13)	(4,24)	(9,31)	(-4,4)	(59,3)	(-9,1)	(-5,5)	(0,11)	(-6,3)	(11,5)	
L1D -9>	(-8,103)	(1,13)	(-5,1)	(20,1)	(-7,11)	(24,4)	(13,2)	(64,1)	(4,1)	(8,0)	(-3,0)	(9,21)	(17,6)	(14,0)	(-72,1)	(10,2)	
L1D -8>	(-9,19)	(2,13)	(10,15)	(-47,3)	(6,5)	(23,14)	(1,16)	(0,14)	(-8,15)	(14,14)	(-4,4)	(5,4)	(17,77)	(9,54)	(128,1)	(8,25)	
L1D -7>	(7,37)	(0,61)	(59,13)	(-11,9)	(10,7)	(-7,10)	(-8,38)	(1,92)	(-1,97)	(-6,1)	(-4,15)	(3,8)	(2,34)	(8,68)	(6,11)	(5,12)	
L1D -6>	(5,9)	(1,51)	(21,7)	(22,11)	(24,92)	(6,29)	(-8,110)	(25,1)	(-48,12)	(10,13)	(-5,15)	(-58,20)	(-1,7)	(2,9)	(-2,8)	(12,11)	
L1D -5>	(6,75)	(25,19)	(-9,18)	(-1,11)	(1,68)	(8,4)	(3,12)	(-3,15)	(-10,20)	(4,52)	(-8,48)	(-5,20)	(5,37)	(21,1)	(0,23)	(-7,8)	
L1D -4>	(-22,7)	(3,19)	(4,94)	(-11,43)	(-1,13)	(-35,1)	(2,15)	(1,83)	(-5,19)	(-12,13)	(5,25)	(-4,16)	(0,46)	(6,26)	(-13,12)	(-64,25)	
L1D -3>	(7,9)	(-5,24)	(0,26)	(2,97)	(-4,3)	(-64,11)	(-7,15)	(3,20)	(12,1)	(6,10)	(1,36)	(-1,13)	(4,12)	(10,5)	(5,26)	(-6,21)	
L1D -2>	(3,22)	(-421,6)	(2,60)	(-8,5)	(-13,1)	(0,12)	(4,118)	(8,2)	(6,7)	(10,19)	(-36,1)	(1,53)	(-1,13)	(-6,7)	(-10,1)	(-5,6)	
L1D -1>	(5,11)	(-42,9)	(3,113)	(7,4)	(1,57)	(2,70)	(8,12)	(-15,4)	(18,1)	(-1,8)	(-7,16)	(-2,4)	(9,5)	(0,42)	(4,16)	(-14,4)	
L1D 0>	(1,35)	(2,87)	(0,86)	(-105,1)	(8,13)	(-6,1)	(3,7)	(9,2)	(15,3)	(5,4)	(-1,6)	(106,1)	(-5,2)	(4,12)	(40,1)	(-8,6)	
L1D 1>	(-45,1)	(42,1)	(422,1)	(1,103)	(5,2)	(4,1)	(-4,5)	(-509,1)	(8,2)	(0,6)	(21,1)	(2,14)	(6,2)	(3,18)	(16,2)	(-1,4)	
L1D 2>	(-1,12)	(10,1)	(0,13)	(3,12)	(2,120)	(-6,1)	(7,2)	(-10,1)	(8,7)	(6,2)	(-42,1)	(-12,2)	(41,1)	(1,20)	(42,1)	(4,11)	
L1D 3>	(-1,28)	(5,1)	(1,41)	(2,104)	(3,12)	(-13,5)	(41,8)	(-2,1)	(6,5)	(4,8)	(0,5)	(-9,3)	(42,4)	(-6,1)	(7,6)	(-42,16)	
L1D 4>	(-3,6)	(1,25)	(2,110)	(-46,1)	(-4,10)	(5,5)	(4,15)	(0,18)	(-2,64)	(-7,5)	(-10,20)	(40,1)	(3,20)	(8,2)	(6,4)	(-1,5)	
L1D 5>	(-6,78)	(-14,1)	(-11,28)	(6,15)	(0,12)	(3,12)	(18,40)	(-5,84)	(-1,37)	(4,5)	(-3,26)	(2,105)	(5,13)	(7,9)	(1,35)	(-4,16)	
L1D 6>	(5,86)	(0,15)	(122,15)	(-13,25)	(-11,15)	(-12,16)	(6,13)	(-31,2)	(-2,17)	(-1,27)	(-3,15)	(-6,12)	(1,37)	(2,37)	(-8,17)	(-7,21)	
L1D 7>	(-12,7)	(-4,9)	(-3,5)	(-1,8)	(-15,4)	(-6,23)	(6,1)	(2,87)	(-27,15)	(-8,7)	(1,55)	(3,49)	(-2,20)	(-7,26)	(-5,18)	(42,5)	
L1D 8>	(-9,60)	(15,12)	(4,13)	(1,21)	(3,7)	(8,23)	(-27,15)	(146,2)	(2,38)	(148,2)	(-10,1)	(-11,3)	(-17,109)	(141,1)	(-8,26)	(42,3)	
L1D 9>	(-35,1)	(2,3)	(0,14)	(5,25)	(1,3)	(8,119)	(215,3)	(218,3)	(4,1)	(-17,1)	(-6,1)	(6,1)	(-8,9)	(-12,4)	(-9,3)	(-31,2)	
L1D 10>	(-6,63)	(-7,8)	(0,15)	(1,26)	(-8,79)	(-41,1)	(-1,41)	(12,4)	(6,33)	(2,49)	(10,23)	(-2,90)	(-4,74)	(-9,70)	(-3,53)	(-24,48)	
L1D 11>	(-2,24)	(-11,99)	(-6,36)	(-81,1)	(-5,30)	(-15,7)	(-10,62)	(2,27)	(24,3)	(3,89)	(-8,28)	(11,7)	(-12,23)	(-4,45)	(-9,22)	(-7,6)	
L1D 12>	(-1,5)	(-7,17)	(5,26)	(6,5)	(13,34)	(-16,7)	(-12,44)	(3,3)	(8,11)	(-2,51)	(9,79)	(-17,1)	(0,15)	(-11,85)	(-8,28)	(-3,19)	
L1D 13>	(0,12)	(8,12)	(-25,2)	(-12,36)	(-17,1)	(-13,20)	(-1,6)	(1,26)	(-3,12)	(-2,89)	(-8,51)	(-4,61)	(-15,12)	(-14,7)	(-6,30)	(-19,22)	
L1D 14>	(1,5)	(2,9)	(-13,28)	(-7,7)	(18,2)	(-19,3)	(-6,100)	(-16,1)	(7,5)	(-10,2)	(-4,42)	(-12,1)	(-14,21)	(0,8)	(-11,6)	(-3,3)	
L1D 15>	(2,2)	(-18,36)	(-15,127)	(-26,17)	(-1,9)	(-14,17)	(-24,24)	(-54,1)	(-16,1)	(-6,7)	(-11,2)	(-4,11)	(13,1)	(1,2)	(-23,115)	(0,2)	
L1D 16>	(-11,6)	(-15,12)	(-9,76)	(2,2)	(6,5)	(361,1)	(1,3)	(-16,15)	(-4,1)	(0,6)	(-25,4)	(-7,31)	(-6,3)	(-24,29)	(112,29)	(-8,9)	
L1D 17>	(-26,1)	(-14,1)	(-57,1)	(-45,1)	(-56,1)	(-51,1)	(-47,1)	(-8,32)	(-43,1)	(-9,114)	(2,8)	(-39,1)	(-35,1)	(-17,11)	(-31,1)	(-27,0)	
L1D 18>	(-12,3)	(1,81)	(-13,18)	(0,4)	(-29,3)	(-5,2)	(-18,7)	(-16,1)	(-7,8)	(-11,3)	(-24,7)	(-8,1)	(113,1)	(-10,2)	(-23,74)	(15,6)	
L1D 19>	(-44,35)	(-10,32)	(0,34)	(-25,49)	(6,9)	(-3,36)	(-1,22)	(-20,96)	(1,23)	(4,33)	(-24,57)	(139,1)	(-19,20)	(-9,9)	(-11,29)	(-30,23)	
L1D 20>	(0,20)	(5,40)	(-19,19)	(-6,19)	(-20,41)	(-10,41)	(-27,19)	(-12,5)	(-21,70)	(-18,1)	(-31,8)	(6,43)	(-9,12)	(-11,6)	(-16,43)	(-7,24)	
L1D 21>	(2,18)	(1,47)	(-332,1)	(6,56)	(-23,14)	(-9,10)	(-61,72)	(0,11)	(-21,20)	(8,112)	(-16,68)	(-20,30)	(-25,41)	(-27,25)	(-15,50)	(136,4)	
L1D 22>	(-22,8)	(-6,30)	(-1,21)	(-11,21)	(-24,121)	(1,11)	(-28,57)	(-31,3)	(-23,8)	(0,7)	(-10,1)	(-8,53)	(-19,38)	(3,24)	(-12,35)	(-15,7)	
L1D 23>	(8,2)	(1,15)	(-15,21)	(-27,1)	(-23,80)	(-17,1)	(-28,1)	(3,17)	(-18,1)	(-3,1)	(0,1)	(-26,1)	(-13,5)	(-29,0)	(-1,6)	(-19,6)	
L1D 24>	(1,23)	(-15,127)	(-20,3)	(-23,85)	(-46,4)	(-24,10)	(-18,33)	(-28,5)	(-16,3)	(-51,3)	(8,1)	(-2,1)	(0,2)	(-30,1)	(-11,2)	(-19,1)	
L1D 25>	(-25,2)	(1,9)	(-16,2)	(-15,1)	(-2,18)	(-24,119)	(56,11)	(67,1)	(-1,6)	(-133,7)	(2,6)	(-178,16)	(-19,3)	(-34,1)	(-3,4)	(60,6)	
L1D 26>	(-7,18)	(8,12)	(-25,31)	(-10,1)	(-38,29)	(-3,34)	(1,74)	(-29,80)	(5,12)	(-8,15)	(-133,3)	(-1,7)	(-2,8)	(-23,7)	(-46,27)	(-26,21)	
L1D 27>	(8,8)	(-25,29)	(0,11)	(-7,3)	(-23,5)	(-8,20)	(-3,10)	(-16,83)	(-133,7)	(-1,9)	(-28,11)	(2,5)	(-12,4)	(-4,3)	(-27,3)	(-10,5)	
L1D 28>	(14,7)	(-6,3)	(-17,26)	(-12,14)	(1,19)	(-1,15)	(-16,1)	(-28,72)	(7,9)	(2,40)	(-7,60)	(-25,4)	(-22,8)	(0,19)	(-9,5)	(-3,11)	
L1D 29>	(-9,6)	(-25,45)	(-12,8)	(-30,24)	(-33,10)	(2,15)	(-32,7)	(-24,46)	(0,45)	(-28,57)	(6,106)	(3,15)	(-1,53)	(-3,13)	(1,36)	(-17,37)	
L1D 30>	(-38,78)	(-24,5)	(3,1)	(-9,86)	(-1,11)	(-31,45)	(-22,8)	(-32,3)	(-297,4)	(1,20)	(0,15)	(2,5)	(-16,19)	(-17,7)	(-30,18)	(13,2)	
L1D 31>	(8,12)	(4,24)	(13,9)	(-12,5)	(11,8)	(-2,2)	(-10,10)	(10,1)	(-24,5)	(-27,2)	(-32,2)	(-30,4)	(-1,93)	(-8,17)	(-11,4)	(-14,3)	
L1D 32>	(8,88)	(-23,8)	(0,18)	(1,27)	(-32,48)	(-20,3)	(-11,6)	(-1,31)	(-8,34)	(-22,9)	(3,11)	(-64,2)	(-33,3)	(-4,5)	(-24,56)	(23,1)	
L1D 33>	(1,31)	(-3,18)	(-8,9)	(-1,33)	(-33,114)	(0,84)	(-31,24)	(2,15)	(-7,5)	(-35,9)	(-12,19)	(-58,1)	(-407,3)	(-24,3)	(-38,5)	(-34,6)	
L1D 34>	(-9,50)	(-32,108)	(-8,12)	(-10,87)	(-5,26)	(-23,12)	(-34,94)	(0,67)	(-1,46)	(-14,24)	(2,12)	(-20,17)	(-36,93)	(-19,9)	(-21,42)	(-24,2)	
L1D 35>	(6,20)	(-25,33)	(0,41)	(1,17)	(-12,51)	(3,42)	(-3,1)	(-1,42)	(5,5)	(-14,55)	(-2,8)	(-6,24)	(-5,22)	(-8,120)	(-35,13)	(-24,34)	
L1D 36>	(-6,1)	(-36,22)	(-24,1)	(-27,11)	(-3,2)	(-1,46)	(-8,84)	(-4,1)	(-22,8)	(-15,2)	(3,6)	(6,8)	(10,20)	(8,28)	(-34,34)	(2,4)	
L1D 37>	(-511,1)	(113,2)	(-225,1)	(-489,6)	(-451,4)	(-264,1)	(-315,1)	(8,1)	(38,87)	(-479,2)	(6,1)	(-493,1)	(75,9)	(-35,3)	(-505,2)	(-7,1)	
L1D 38>	(-149,2)	(-25,1)	(-452,2)	(-489,3)	(-505,1)	(-490,1)	(-2,15)	(1,2)	(37,74)	(0,1)	(-6,5)	(-1,1)	(-24,5)	(8,3)	(-482,1)	(-4,1)	
L1D 39>	(-4,22)	(-14,10)	(-11,42)	(-8,118)	(-18,4)	(-42,26)	(-39,3)	(-7,13)	(3,2)	(-49,3)	(0,3)	(-10,18)	(1,20)	(12,2)	(-5,11)	(-1,19)	
L1D 40>	(-1,23)	(2,15)	(1,6)	(-40,7)	(-9,8)	(-5,15)	(-39,4)	(-8,80)	(-6,16)	(4,10)	(6,8)	(0,11)	(-43,43)	(-42,3)	(-10,3)	(8,1)	
L1D 41>	(-12,0)	(9,2)	(51,0)	(-10,0)	(1,3)	(-11,1)	(-42,76)	(3,33)	(251,1)	(-40,0)	(2,3)	(-39,15)	(5,3)	(-34,0)	(0,5)	(-1,0)	
L1D 42>	(-34,1)	(-41,14)	(8,1)	(-39,17)	(2,26)	(-40,7)	(3,80)	(-14,1)	(1,2)	(-11,1)	(-7,3)	(9,1)	(-43,110)	(-1,23)	(-24,3)	(-35,1)	
L1D 43>	(-40,0)	(1,2)	(-1,1)	(2,40)	(-41,77)	(15,0)	(-42,82)	(-39,0)	(7,3)	(-17,0)	(3,0)	(8,1)	(-9,0)	(-3,0)	(-4,0)	(-10,2)	
L1D 44>	(-42,80)	(-32,0)	(-41,0)	(1,0)	(-1,1)	(-46,0)	(-34,0)	(-8,2)	(-6,0)	(-10,0)	(8,0)	(0,0)	(-43,5)	(7,0)	(-40,0)	(-44,0)	
L1D 45>	(-42,100)	(-41,1)	(-46,0)	(-5,2)	(-1,1)	(4,0)	(-21,0)	(-43,72)	(-266,0)	(10,0)	(0,0)	(1,1)	(-2,4)	(7,1)	(-45,0)	(6,0)	
L1D 46>	(-11,2)	(0,2)	(4,3)	(30,1)	(-25,1)	(-46,25)	(1,8)	(-30,2)	(2,124)	(-6,5)	(-5,2)	(24,1)	(-42,118)	(-44,71)	(-7,29)	(8,1)	
L1D 47>	(-1,31)	(-43,4)	(64,30)	(-24,48)	(-5,64)	(-41,26)	(-25,58)	(-47,18)	(0,1)	(-12,7)	(2,9)	(-39,3)	(-42,111)	(-8,43)	(-22,20)	(3,9)	
L1D 48>	(-4,2)	(-77,2)	(8,5)	(-52,1)	(4,3)	(2,37)	(-46,64)	(-44,26)	(-11,4)	(-48,5)	(6,2)	(-42,63)	(0,4)	(-6,10)	(-96,1)	(-5,6)	
L1D 49>	(1,45)	(-12,42)	(5,28)	(4,1)	(-1,36)	(6,45)	(-42,37)	(0,42)	(-10,6)	(-64,53)	(132,3)	(-9,7)	(251,10)	(-8,67)	(64,32)	(-49,78)	
L1D 50>	(9,4)	(-42,120)	(-1,15)	(-24,3)	(1,5)	(2,31)	(6,8)	(-19,1)	(-12,35)	(-41,27)	(128,2)	(-50,11)	(-8,44)	(-15,11)	(4,17)	(-40,10)	
L1D 51>	(6,9)	(-4,7)	(8,26)	(-50,6)	(9,5)	(-11,40)	(5,14)	(-51,9)	(-7,123)	(-6,18)	(-24,45)	(-5,22)	(-43,1)	(-42,63)	(-1,5)	(-53,10)	
L1D 52>	(4,0)	(-12,65)	(5,2)	(8,4)	(-7,13)	(-64,0)	(-6,4)	(76,1)	(6,8)	(-52,24)	(-46,0)	(-44,0)	(-398,2)	(-5,1)	(-8,2)	(-4,0)	
L1D 53>	(-24,13)	(-53,74)	(1,8)	(-59,4)	(-64,14)	(-21,4)	(6,28)	(-6,13)	(-1,4)	(-8,18)	(-5,112)	(-11,29)	(7,16)	(-2,3)	(-52,1)	(5,24)	
L1D 54>	(1,80)	(-22,15)	(-6,24)	(-59,2)	(-5,16)	(-25,2)	(-8,92)	(-12,10)	(-15,23)	(-1,16)	(-2,2)	(-54,2)	(-53,1)	(-24,27)	(-82,2)	(0,5)	
L1D 55>	(-24,31)	(1,10)	(-7,5)	(-56,2)	(-40,2)	(64,2)	(-43,2)	(-8,68)	(-55,34)	(-6,15)	(-13,3)	(-17,2)	(0,24)	(-1,12)	(-46,5)	(-52,0)	
L1D 56>	(52,8)	(60,8)	(-398,5)	(-402,6)	(-11,26)	(-8,1)	(56,16)	(64,5)	(21,3)	(0,4)	(-148,4)	(61,29)	(-56,74)	(-64,65)	(-24,3)	(53,6)	
L1D 57>	(-57,98)	(55,3)	(-403,3)	(60,9)	(-1,42)	(7,2)	(-24,37)	(-2,3)	(-11,27)	(-34,4)	(-10,10)	(-18,9)	(59,7)	(-8,10)	(-25,1)	(2,3)	
L1D 58>	(0,11)	(-5,6)	(24,2)	(32,2)	(-11,23)	(-2,16)	(-7,5)	(-16,9)	(-21,82)	(-3,5)	(-58,4)	(113,2)	(-10,2)	(-4,100)	(-22,3)	(-8,3)	
L1D 59>	(-50,12)	(-33,5)	(-43,18)	(0,44)	(-36,24)	(-49,28)	(128,40)	(-32,65)	(-46,61)	(-11,37)	(-52,48)	(-51,1)	(-37,20)	(-29,47)	(-34,90)	(-57,20)	
L1D 60>	(1,13)	(8,12)	(9,8)	(-60,48)	(-11,81)	(-58,16)	(-10,65)	(197,1)	(-4,9)	(131,8)	(-9,20)	(-403,35)	(-137,13)	(-402,16)	(57,22)	(-2,3)	
L1D 61>	(0,21)	(-22,50)	(-137,2)	(-403,71)	(-1,6)	(-5,11)	(-7,3)	(-306,11)	(-254,18)	(-286,13)	(-8,25)	(-95,8)	(-153,11)	(-6,10)	(-3,13)	(-27,38)	
L1D 62>	(0,65)	(-10,6)	(-8,2)	(1,13)	(64,5)	(-41,0)	(-9,0)	(-33,0)	(-17,0)	(-467,0)	(-2,1)	(2,0)	(-1,0)	(-132,10)	(-6,0)	(-3,1)	
L1D 63>	(-44,7)	(6,25)	(1,45)	(-64,21)	(13,6)	(138,5)	(-63,20)	(140,4)	(-133,105)	(12,6)	(64,46)	(0,23)	(2,6)	(-194,12)	(-61,1)	(-7,13)	
L1D 64>	(-16,17)	(-52,1)	(-65,8)	(0,23)	(-176,88)	(-6,22)	(-56,98)	(-57,4)	(-64,71)	(-17,6)	(-72,65)	(23,13)	(-78,5)	(112,17)	(-24,73)	(-9,4)	
L1D 65>	(-7,28)	(64,69)	(-8,4)	(-11,10)	(51,11)	(-65,6)	(-83,2)	(-64,14)	(-1,9)	(-9,12)	(-89,2)	(0,26)	(52,1)	(-75,1)	(-139,1)	(115,2)	
L1D 66>	(-7,71)	(-9,19)	(-66,2)	(64,33)	(0,6)	(4,18)	(16,8)	(-8,18)	(-64,48)	(-12,3)	(7,1)	(-11,6)	(-39,1)	(-81,6)	(-2,1)	(-35,2)	
[...]
L1D 476>	(-200,19)	(-398,1)	(-85,1)	(-5,1)	(-348,1)	(-138,1)	(-32,1)	(0,2)	(1,0)	(1,0)	(1,0)	(1,0)	(1,0)	(1,0)	(1,0)	(1,0)	
L1D 477>	(-160,1)	(-64,2)	(0,4)	(-477,1)	(-393,1)	(1,0)	(1,0)	(1,0)	(1,0)	(1,0)	(1,0)	(1,0)	(1,0)	(1,0)	(1,0)	(1,0)	
L1D 478>	(1,0)	(1,0)	(1,0)	(1,0)	(1,0)	(1,0)	(1,0)	(1,0)	(1,0)	(1,0)	(1,0)	(1,0)	(1,0)	(1,0)	(1,0)	(1,0)	
L1D 479>	(0,2)	(-218,1)	(-216,1)	(1,0)	(1,0)	(1,0)	(1,0)	(1,0)	(1,0)	(1,0)	(1,0)	(1,0)	(1,0)	(1,0)	(1,0)	(1,0)	
L1D 480>	(-224,3)	(-32,3)	(-344,1)	(-359,1)	(-480,28)	(-409,47)	(-472,2)	(1,0)	(1,0)	(1,0)	(1,0)	(1,0)	(1,0)	(1,0)	(1,0)	(1,0)	
L1D 481>	(1,0)	(1,0)	(1,0)	(1,0)	(1,0)	(1,0)	(1,0)	(1,0)	(1,0)	(1,0)	(1,0)	(1,0)	(1,0)	(1,0)	(1,0)	(1,0)	
L1D 482>	(-193,1)	(-117,1)	(-119,2)	(1,0)	(1,0)	(1,0)	(1,0)	(1,0)	(1,0)	(1,0)	(1,0)	(1,0)	(1,0)	(1,0)	(1,0)	(1,0)	
L1D 483>	(1,0)	(1,0)	(1,0)	(1,0)	(1,0)	(1,0)	(1,0)	(1,0)	(1,0)	(1,0)	(1,0)	(1,0)	(1,0)	(1,0)	(1,0)	(1,0)	
L1D 484>	(-192,1)	(1,0)	(1,0)	(1,0)	(1,0)	(1,0)	(1,0)	(1,0)	(1,0)	(1,0)	(1,0)	(1,0)	(1,0)	(1,0)	(1,0)	(1,0)	
L1D 485>	(11,2)	(-218,1)	(-192,2)	(1,0)	(1,0)	(1,0)	(1,0)	(1,0)	(1,0)	(1,0)	(1,0)	(1,0)	(1,0)	(1,0)	(1,0)	(1,0)	
L1D 486>	(1,0)	(1,0)	(1,0)	(1,0)	(1,0)	(1,0)	(1,0)	(1,0)	(1,0)	(1,0)	(1,0)	(1,0)	(1,0)	(1,0)	(1,0)	(1,0)	
L1D 487>	(-192,1)	(1,0)	(1,0)	(1,0)	(1,0)	(1,0)	(1,0)	(1,0)	(1,0)	(1,0)	(1,0)	(1,0)	(1,0)	(1,0)	(1,0)	(1,0)	
L1D 488>	(-16,1)	(-128,1)	(1,0)	(1,0)	(1,0)	(1,0)	(1,0)	(1,0)	(1,0)	(1,0)	(1,0)	(1,0)	(1,0)	(1,0)	(1,0)	(1,0)	
L1D 489>	(1,0)	(1,0)	(1,0)	(1,0)	(1,0)	(1,0)	(1,0)	(1,0)	(1,0)	(1,0)	(1,0)	(1,0)	(1,0)	(1,0)	(1,0)	(1,0)	
L1D 490>	(-88,1)	(1,0)	(1,0)	(1,0)	(1,0)	(1,0)	(1,0)	(1,0)	(1,0)	(1,0)	(1,0)	(1,0)	(1,0)	(1,0)	(1,0)	(1,0)	
L1D 491>	(1,0)	(1,0)	(1,0)	(1,0)	(1,0)	(1,0)	(1,0)	(1,0)	(1,0)	(1,0)	(1,0)	(1,0)	(1,0)	(1,0)	(1,0)	(1,0)	
L1D 492>	(1,0)	(1,0)	(1,0)	(1,0)	(1,0)	(1,0)	(1,0)	(1,0)	(1,0)	(1,0)	(1,0)	(1,0)	(1,0)	(1,0)	(1,0)	(1,0)	
L1D 493>	(11,1)	(3,1)	(1,0)	(1,0)	(1,0)	(1,0)	(1,0)	(1,0)	(1,0)	(1,0)	(1,0)	(1,0)	(1,0)	(1,0)	(1,0)	(1,0)	
L1D 494>	(-218,1)	(1,0)	(1,0)	(1,0)	(1,0)	(1,0)	(1,0)	(1,0)	(1,0)	(1,0)	(1,0)	(1,0)	(1,0)	(1,0)	(1,0)	(1,0)	
L1D 495>	(1,0)	(1,0)	(1,0)	(1,0)	(1,0)	(1,0)	(1,0)	(1,0)	(1,0)	(1,0)	(1,0)	(1,0)	(1,0)	(1,0)	(1,0)	(1,0)	
L1D 496>	(-148,1)	(1,0)	(1,0)	(1,0)	(1,0)	(1,0)	(1,0)	(1,0)	(1,0)	(1,0)	(1,0)	(1,0)	(1,0)	(1,0)	(1,0)	(1,0)	
L1D 497>	(1,0)	(1,0)	(1,0)	(1,0)	(1,0)	(1,0)	(1,0)	(1,0)	(1,0)	(1,0)	(1,0)	(1,0)	(1,0)	(1,0)	(1,0)	(1,0)	
L1D 498>	(-182,1)	(1,0)	(1,0)	(1,0)	(1,0)	(1,0)	(1,0)	(1,0)	(1,0)	(1,0)	(1,0)	(1,0)	(1,0)	(1,0)	(1,0)	(1,0)	
L1D 499>	(-405,1)	(11,1)	(1,0)	(1,0)	(1,0)	(1,0)	(1,0)	(1,0)	(1,0)	(1,0)	(1,0)	(1,0)	(1,0)	(1,0)	(1,0)	(1,0)	
L1D 500>	(1,0)	(1,0)	(1,0)	(1,0)	(1,0)	(1,0)	(1,0)	(1,0)	(1,0)	(1,0)	(1,0)	(1,0)	(1,0)	(1,0)	(1,0)	(1,0)	
L1D 501>	(1,0)	(1,0)	(1,0)	(1,0)	(1,0)	(1,0)	(1,0)	(1,0)	(1,0)	(1,0)	(1,0)	(1,0)	(1,0)	(1,0)	(1,0)	(1,0)	
L1D 502>	(1,0)	(1,0)	(1,0)	(1,0)	(1,0)	(1,0)	(1,0)	(1,0)	(1,0)	(1,0)	(1,0)	(1,0)	(1,0)	(1,0)	(1,0)	(1,0)	
L1D 503>	(1,0)	(1,0)	(1,0)	(1,0)	(1,0)	(1,0)	(1,0)	(1,0)	(1,0)	(1,0)	(1,0)	(1,0)	(1,0)	(1,0)	(1,0)	(1,0)	
L1D 504>	(-375,6)	(1,0)	(1,0)	(1,0)	(1,0)	(1,0)	(1,0)	(1,0)	(1,0)	(1,0)	(1,0)	(1,0)	(1,0)	(1,0)	(1,0)	(1,0)	
L1D 505>	(1,0)	(1,0)	(1,0)	(1,0)	(1,0)	(1,0)	(1,0)	(1,0)	(1,0)	(1,0)	(1,0)	(1,0)	(1,0)	(1,0)	(1,0)	(1,0)	
L1D 506>	(1,0)	(1,0)	(1,0)	(1,0)	(1,0)	(1,0)	(1,0)	(1,0)	(1,0)	(1,0)	(1,0)	(1,0)	(1,0)	(1,0)	(1,0)	(1,0)	
L1D 507>	(1,0)	(1,0)	(1,0)	(1,0)	(1,0)	(1,0)	(1,0)	(1,0)	(1,0)	(1,0)	(1,0)	(1,0)	(1,0)	(1,0)	(1,0)	(1,0)	
L1D 508>	(1,0)	(1,0)	(1,0)	(1,0)	(1,0)	(1,0)	(1,0)	(1,0)	(1,0)	(1,0)	(1,0)	(1,0)	(1,0)	(1,0)	(1,0)	(1,0)	
L1D 509>	(1,0)	(1,0)	(1,0)	(1,0)	(1,0)	(1,0)	(1,0)	(1,0)	(1,0)	(1,0)	(1,0)	(1,0)	(1,0)	(1,0)	(1,0)	(1,0)	
L1D 510>	(1,0)	(1,0)	(1,0)	(1,0)	(1,0)	(1,0)	(1,0)	(1,0)	(1,0)	(1,0)	(1,0)	(1,0)	(1,0)	(1,0)	(1,0)	(1,0)	
L1D 511>	(1,0)	(1,0)	(1,0)	(1,0)	(1,0)	(1,0)	(1,0)	(1,0)	(1,0)	(1,0)	(1,0)	(1,0)	(1,0)	(1,0)	(1,0)	(1,0)	

L2C -64>	(-38,1)	(1,237)	(10,1)	(3,39)	(-2,5)	(-5,9)	(-61,5)	(-51,1)	(2,88)	(-63,4)	(5,11)	(-62,7)	(6,1)	(4,18)	(-3,3)	(14,1)	
L2C -63>	(1,206)	(3,3)	(8,0)	(4,9)	(2,8)	(5,1)	(9,0)	(1,0)	(1,0)	(1,0)	(1,0)	(1,0)	(1,0)	(1,0)	(1,0)	(1,0)	
L2C -62>	(9,3)	(3,7)	(14,1)	(7,1)	(13,1)	(4,8)	(1,59)	(2,8)	(8,1)	(52,1)	(5,1)	(1,0)	(1,0)	(1,0)	(1,0)	(1,0)	
L2C -61>	(1,52)	(4,13)	(14,2)	(3,4)	(0,1)	(5,16)	(2,1)	(19,1)	(10,2)	(9,3)	(33,1)	(28,2)	(18,1)	(1,0)	(1,0)	(1,0)	
L2C -60>	(60,1)	(1,40)	(34,1)	(0,1)	(59,2)	(46,1)	(3,6)	(14,2)	(16,1)	(21,1)	(4,6)	(2,3)	(5,2)	(27,1)	(9,1)	(-1,3)	
L2C -59>	(1,33)	(4,6)	(32,2)	(33,1)	(54,1)	(3,3)	(40,1)	(51,1)	(14,1)	(21,1)	(2,4)	(59,1)	(60,1)	(-3,1)	(-2,4)	(1,0)	
L2C -58>	(3,4)	(4,2)	(1,23)	(27,1)	(31,1)	(44,1)	(2,3)	(42,1)	(10,3)	(24,1)	(6,1)	(12,1)	(5,1)	(49,1)	(9,2)	(7,1)	
L2C -57>	(1,17)	(2,6)	(10,1)	(4,3)	(46,1)	(57,1)	(34,2)	(3,2)	(32,1)	(-5,3)	(0,2)	(50,1)	(56,1)	(11,1)	(5,5)	(14,1)	
L2C -56>	(1,24)	(5,7)	(32,2)	(-4,1)	(2,12)	(56,1)	(46,1)	(-1,1)	(-5,3)	(20,1)	(12,2)	(60,2)	(57,1)	(10,3)	(4,12)	(13,1)	
L2C -55>	(1,42)	(-5,3)	(0,5)	(20,2)	(-1,2)	(56,4)	(9,2)	(2,9)	(11,3)	(4,1)	(55,11)	(53,1)	(32,1)	(16,1)	(7,1)	(51,2)	
L2C -54>	(-2,1)	(-3,4)	(1,47)	(-4,1)	(2,3)	(55,1)	(45,1)	(52,1)	(56,1)	(19,1)	(-1,2)	(53,1)	(38,1)	(3,3)	(4,1)	(11,1)	
L2C -53>	(-7,4)	(-5,2)	(4,2)	(54,1)	(38,1)	(1,20)	(36,2)	(35,1)	(46,1)	(52,1)	(51,1)	(-1,4)	(15,1)	(16,1)	(13,1)	(29,1)	
L2C -52>	(33,1)	(27,2)	(-1,3)	(51,3)	(1,39)	(34,3)	(53,4)	(2,2)	(54,1)	(55,2)	(29,1)	(4,7)	(32,1)	(35,1)	(39,2)	(25,1)	
L2C -51>	(1,21)	(-4,1)	(51,2)	(17,2)	(4,2)	(5,2)	(47,2)	(10,2)	(32,3)	(0,3)	(29,3)	(-5,1)	(2,2)	(14,1)	(50,2)	(52,1)	
L2C -50>	(50,7)	(1,22)	(47,5)	(4,5)	(40,3)	(51,2)	(16,3)	(15,1)	(45,2)	(25,1)	(19,1)	(55,2)	(43,1)	(30,1)	(44,1)	(31,2)	
L2C -49>	(1,21)	(0,5)	(2,6)	(34,2)	(7,4)	(10,1)	(15,3)	(17,2)	(4,2)	(36,1)	(43,1)	(30,1)	(14,1)	(-8,1)	(24,1)	(3,2)	
L2C -48>	(1,14)	(35,1)	(-8,1)	(42,1)	(2,4)	(0,1)	(-6,1)	(-1,1)	(-2,2)	(14,1)	(11,1)	(16,1)	(47,3)	(34,1)	(51,1)	(30,1)	
L2C -47>	(1,17)	(2,1)	(-11,1)	(-1,3)	(56,1)	(36,1)	(42,1)	(5,3)	(18,1)	(0,1)	(40,1)	(4,2)	(-2,1)	(11,4)	(17,1)	(-4,1)	
L2C -46>	(-1,3)	(-2,1)	(-11,1)	(50,1)	(-5,1)	(0,4)	(1,14)	(45,2)	(26,1)	(9,1)	(5,1)	(38,3)	(-10,2)	(59,1)	(39,2)	(-7,1)	
L2C -45>	(1,12)	(46,4)	(0,4)	(48,2)	(21,1)	(8,2)	(45,1)	(35,1)	(34,2)	(41,1)	(2,2)	(33,1)	(60,1)	(10,1)	(19,1)	(-6,1)	
L2C -44>	(1,11)	(2,2)	(8,1)	(39,1)	(5,1)	(4,2)	(31,2)	(36,1)	(45,2)	(15,2)	(42,1)	(12,1)	(46,2)	(20,2)	(-2,1)	(27,2)	
L2C -43>	(1,14)	(4,3)	(-1,2)	(34,1)	(21,2)	(24,1)	(42,1)	(29,1)	(2,3)	(10,1)	(46,1)	(43,1)	(30,1)	(-8,1)	(22,1)	(36,1)	
L2C -42>	(43,5)	(36,5)	(-3,2)	(14,2)	(23,2)	(27,4)	(1,9)	(6,1)	(20,3)	(-2,4)	(-9,3)	(56,1)	(9,2)	(21,2)	(-1,5)	(54,2)	
L2C -41>	(-1,2)	(11,2)	(43,1)	(-4,2)	(1,16)	(27,2)	(19,2)	(-13,3)	(17,1)	(40,5)	(0,4)	(-14,2)	(2,3)	(20,2)	(42,5)	(36,2)	
L2C -40>	(-1,5)	(28,2)	(1,22)	(39,3)	(2,6)	(32,3)	(9,2)	(27,1)	(4,3)	(15,2)	(37,1)	(0,3)	(-8,6)	(-9,2)	(25,1)	(14,1)	
L2C -39>	(2,5)	(1,24)	(-10,2)	(-3,2)	(17,5)	(-1,1)	(6,2)	(27,2)	(28,2)	(-18,2)	(19,4)	(18,1)	(38,1)	(16,1)	(40,6)	(5,2)	
L2C -38>	(-1,3)	(25,1)	(1,13)	(-16,1)	(27,1)	(-8,2)	(-4,2)	(28,2)	(31,1)	(43,1)	(37,1)	(-11,1)	(5,2)	(32,1)	(40,2)	(8,3)	
L2C -37>	(43,2)	(1,21)	(2,2)	(-1,1)	(25,1)	(32,1)	(-9,1)	(-6,1)	(-16,1)	(-7,1)	(4,1)	(22,1)	(6,1)	(38,3)	(-2,4)	(45,1)	
L2C -36>	(54,3)	(4,6)	(1,25)	(-27,1)	(34,2)	(37,4)	(2,4)	(32,2)	(27,6)	(28,3)	(22,2)	(5,6)	(7,4)	(26,2)	(6,3)	(-1,3)	
L2C -35>	(1,32)	(-1,5)	(27,3)	(36,4)	(9,1)	(34,2)	(-16,6)	(14,1)	(45,1)	(18,1)	(26,5)	(5,2)	(32,3)	(-5,1)	(24,4)	(8,3)	
L2C -34>	(1,35)	(33,2)	(2,4)	(21,1)	(6,2)	(23,1)	(-8,3)	(7,3)	(-11,1)	(17,3)	(35,2)	(15,4)	(16,3)	(-6,4)	(27,4)	(-17,5)	
L2C -33>	(32,8)	(-2,2)	(26,5)	(1,27)	(35,3)	(5,4)	(-13,1)	(-18,1)	(33,5)	(9,2)	(-14,1)	(31,1)	(40,1)	(-1,9)	(15,3)	(-8,2)	
L2C -32>	(1,37)	(16,2)	(18,2)	(-1,6)	(-7,2)	(25,1)	(6,1)	(33,5)	(2,5)	(17,2)	(31,4)	(59,3)	(0,8)	(42,2)	(36,3)	(-3,3)	
L2C -31>	(31,8)	(24,3)	(29,4)	(27,5)	(5,3)	(2,5)	(17,3)	(15,1)	(-1,10)	(-2,3)	(25,2)	(14,3)	(1,27)	(53,2)	(22,2)	(56,1)	
L2C -30>	(11,5)	(-1,8)	(13,3)	(1,51)	(25,2)	(27,4)	(2,1)	(4,2)	(16,1)	(22,3)	(41,3)	(10,1)	(-2,3)	(29,4)	(6,1)	(40,2)	
L2C -29>	(1,32)	(27,9)	(36,5)	(31,3)	(-14,3)	(7,3)	(30,1)	(9,1)	(-9,1)	(2,3)	(-1,12)	(4,5)	(32,5)	(-7,2)	(25,4)	(14,3)	
L2C -28>	(9,5)	(25,3)	(1,34)	(28,4)	(4,10)	(5,2)	(-35,1)	(49,1)	(8,3)	(0,2)	(-27,1)	(16,5)	(-26,1)	(-1,4)	(30,6)	(11,2)	
L2C -27>	(28,5)	(-1,14)	(27,5)	(1,29)	(9,3)	(25,2)	(5,2)	(30,3)	(6,5)	(4,3)	(-2,2)	(7,2)	(3,2)	(-5,1)	(16,3)	(-9,1)	
L2C -26>	(-4,4)	(-16,3)	(23,3)	(-1,9)	(6,1)	(1,20)	(4,4)	(-2,2)	(-10,3)	(32,2)	(40,1)	(20,1)	(26,2)	(45,2)	(52,1)	(24,3)	
L2C -25>	(10,8)	(17,4)	(21,4)	(14,6)	(0,3)	(-1,7)	(7,4)	(24,3)	(33,2)	(1,20)	(11,2)	(-2,3)	(3,2)	(60,1)	(-4,3)	(-26,2)	
L2C -24>	(0,5)	(27,3)	(1,37)	(22,3)	(-16,1)	(-2,4)	(-19,2)	(16,3)	(2,6)	(-23,2)	(-1,19)	(6,2)	(8,4)	(-4,3)	(26,3)	(-32,2)	
L2C -23>	(1,32)	(17,3)	(16,3)	(33,2)	(20,2)	(-8,3)	(0,2)	(13,3)	(4,8)	(15,3)	(-15,1)	(-1,5)	(3,3)	(-33,1)	(-10,2)	(18,1)	
L2C -22>	(28,4)	(1,39)	(-1,11)	(0,2)	(18,4)	(21,3)	(-6,2)	(3,6)	(8,6)	(11,5)	(-13,1)	(-29,4)	(17,4)	(4,4)	(6,4)	(33,1)	
L2C -21>	(1,44)	(19,5)	(-1,6)	(24,5)	(0,63)	(-10,2)	(-26,3)	(16,3)	(3,7)	(14,3)	(29,2)	(2,18)	(43,2)	(17,1)	(11,9)	(10,1)	
L2C -20>	(1,50)	(28,4)	(3,3)	(20,4)	(-1,9)	(7,1)	(18,4)	(2,10)	(-18,2)	(-2,6)	(11,7)	(23,4)	(26,2)	(12,2)	(4,5)	(-6,2)	
L2C -19>	(1,50)	(-1,12)	(19,17)	(15,7)	(8,6)	(0,128)	(-2,1)	(28,2)	(21,6)	(22,4)	(5,11)	(4,7)	(-8,3)	(10,3)	(20,10)	(2,13)	
L2C -18>	(1,49)	(18,12)	(8,8)	(17,8)	(55,3)	(9,3)	(2,16)	(27,3)	(15,10)	(19,7)	(21,1)	(-7,2)	(-1,10)	(4,4)	(42,2)	(34,2)	
L2C -17>	(0,19)	(10,6)	(-1,7)	(37,2)	(19,3)	(1,54)	(16,17)	(2,8)	(23,1)	(21,1)	(-14,2)	(12,13)	(20,5)	(-7,4)	(-17,3)	(22,1)	
L2C -16>	(-13,4)	(1,72)	(-1,16)	(-3,7)	(4,1)	(-2,6)	(13,6)	(-15,2)	(5,3)	(0,30)	(-8,6)	(17,20)	(11,5)	(8,7)	(2,16)	(16,17)	
L2C -15>	(1,59)	(13,6)	(12,4)	(-14,4)	(-10,5)	(16,13)	(-1,17)	(27,7)	(0,12)	(-2,13)	(15,10)	(-6,4)	(2,1)	(28,5)	(4,3)	(23,3)	
L2C -14>	(1,51)	(5,11)	(-8,3)	(-1,32)	(-3,3)	(-12,3)	(2,8)	(-47,1)	(14,5)	(15,13)	(-10,3)	(-2,8)	(-5,4)	(-17,2)	(8,6)	(4,4)	
L2C -13>	(2,10)	(1,67)	(14,13)	(12,3)	(0,38)	(-1,12)	(-4,2)	(-5,1)	(3,10)	(-25,2)	(-36,1)	(8,9)	(25,4)	(-8,5)	(28,3)	(24,6)	
L2C -12>	(1,63)	(3,6)	(13,10)	(-1,17)	(32,1)	(18,5)	(8,16)	(-16,9)	(-7,4)	(11,6)	(17,4)	(7,6)	(9,13)	(2,17)	(19,4)	(12,6)	
L2C -11>	(1,80)	(18,3)	(3,7)	(6,5)	(-2,3)	(-3,4)	(11,9)	(-1,25)	(12,13)	(-11,3)	(22,3)	(8,13)	(-27,1)	(2,10)	(-14,3)	(26,3)	
L2C -10>	(1,100)	(11,27)	(8,48)	(4,14)	(2,19)	(6,10)	(-1,34)	(5,16)	(-4,3)	(16,1)	(17,2)	(0,19)	(35,4)	(10,17)	(25,5)	(9,17)	
L2C -9>	(1,131)	(8,23)	(4,20)	(15,6)	(-4,1)	(-28,3)	(3,17)	(2,41)	(9,119)	(5,13)	(-1,49)	(11,18)	(10,26)	(21,5)	(-8,5)	(25,2)	
L2C -8>	(1,93)	(-2,16)	(3,77)	(2,19)	(-1,54)	(15,9)	(-3,14)	(27,31)	(7,23)	(10,12)	(33,1)	(4,80)	(-11,3)	(0,19)	(5,42)	(8,253)	
L2C -7>	(17,6)	(8,54)	(-1,53)	(39,1)	(29,4)	(1,135)	(-8,9)	(0,13)	(2,41)	(-2,33)	(5,19)	(6,19)	(-4,7)	(-28,2)	(-10,2)	(3,26)	
L2C -6>	(1,162)	(4,24)	(7,52)	(8,39)	(-2,19)	(21,11)	(10,12)	(-10,5)	(12,6)	(-5,1)	(-18,2)	(2,31)	(5,33)	(6,10)	(-1,55)	(-3,5)	
L2C -5>	(6,210)	(7,17)	(1,142)	(17,1)	(-5,4)	(11,2)	(-1,31)	(3,17)	(12,2)	(4,58)	(-6,6)	(0,18)	(-3,5)	(8,8)	(5,19)	(-2,5)	
L2C -4>	(1,150)	(-1,52)	(-4,10)	(3,12)	(-6,3)	(0,13)	(7,3)	(2,21)	(5,18)	(6,10)	(4,32)	(9,7)	(14,3)	(-5,4)	(-2,6)	(-17,1)	
L2C -3>	(0,16)	(4,31)	(-4,5)	(-1,50)	(14,3)	(1,137)	(9,3)	(2,27)	(-5,10)	(-9,2)	(6,5)	(-7,3)	(-2,17)	(13,1)	(8,4)	(3,11)	
L2C -2>	(3,54)	(8,5)	(-1,96)	(1,246)	(4,24)	(-8,6)	(-3,6)	(12,1)	(-10,4)	(-9,7)	(-2,20)	(9,10)	(2,68)	(-5,5)	(5,16)	(0,105)	
L2C -1>	(-4,4)	(1,52)	(0,13)	(6,5)	(-1,170)	(13,2)	(-2,8)	(5,4)	(10,4)	(2,54)	(-5,4)	(4,11)	(-20,1)	(-40,1)	(3,19)	(15,1)	
L2C 0>	(1,18)	(0,200)	(-57,1)	(43,1)	(10,2)	(21,2)	(-2,5)	(-33,1)	(2,6)	(36,1)	(-3,1)	(35,1)	(-1,6)	(-55,1)	(-7,2)	(-8,3)	
L2C 1>	(1,135)	(38,0)	(11,0)	(2,3)	(5,0)	(-5,0)	(-6,0)	(-22,0)	(-62,0)	(-63,1)	(3,1)	(-1,0)	(4,0)	(-55,0)	(20,0)	(-3,0)	
L2C 2>	(1,209)	(-1,14)	(2,29)	(-63,2)	(-6,2)	(-5,2)	(-57,2)	(-13,1)	(3,9)	(11,1)	(-9,1)	(0,1)	(4,5)	(-10,1)	(17,1)	(5,7)	
L2C 3>	(-1,5)	(2,22)	(43,1)	(-18,1)	(-5,5)	(1,243)	(5,6)	(4,10)	(-63,3)	(-8,5)	(14,1)	(-4,14)	(3,16)	(-12,2)	(-2,2)	(-3,1)	
L2C 4>	(5,189)	(1,126)	(4,3)	(-61,11)	(0,3)	(-3,2)	(3,2)	(19,2)	(-33,4)	(10,13)	(-63,1)	(-18,2)	(2,4)	(-6,1)	(-8,2)	(-56,4)	
L2C 5>	(1,30)	(-61,14)	(14,6)	(9,15)	(29,2)	(2,7)	(-56,3)	(-63,3)	(-4,1)	(-42,2)	(-52,1)	(5,240)	(4,213)	(-33,3)	(-57,5)	(3,2)	
L2C 6>	(1,240)	(5,5)	(8,2)	(2,19)	(-10,3)	(-5,178)	(-4,3)	(-2,11)	(0,6)	(-19,1)	(-3,5)	(-11,3)	(-1,21)	(-7,5)	(4,12)	(3,9)	
L2C 7>	(1,243)	(-11,11)	(-3,10)	(-1,29)	(2,33)	(7,7)	(-20,1)	(-10,13)	(-6,25)	(3,16)	(-8,13)	(-5,8)	(5,5)	(12,4)	(-41,4)	(-2,22)	
L2C 8>	(3,11)	(-6,17)	(-7,23)	(0,110)	(1,159)	(-8,41)	(-1,30)	(8,9)	(2,29)	(6,1)	(-4,22)	(4,5)	(-9,13)	(-5,20)	(-2,19)	(7,3)	
L2C 9>	(1,175)	(2,31)	(-14,9)	(-6,14)	(-5,46)	(-9,11)	(-8,1)	(6,11)	(0,90)	(-1,43)	(-2,10)	(-4,17)	(4,16)	(24,6)	(5,63)	(-7,9)	
L2C 10>	(1,135)	(-5,39)	(3,11)	(0,17)	(6,8)	(-2,21)	(2,59)	(-17,1)	(-9,13)	(5,38)	(-10,35)	(-1,33)	(-8,16)	(4,36)	(-7,6)	(-4,11)	
L2C 11>	(-12,7)	(4,9)	(-5,20)	(-19,8)	(-8,5)	(1,140)	(-1,27)	(-6,5)	(3,3)	(0,4)	(15,3)	(-3,4)	(-18,3)	(24,2)	(-11,1)	(2,39)	
L2C 12>	(1,92)	(-7,7)	(-16,5)	(-1,20)	(-12,1)	(-4,7)	(-5,16)	(-2,16)	(-25,6)	(-8,8)	(-10,5)	(2,26)	(-6,6)	(-24,4)	(12,2)	(7,5)	
L2C 13>	(-13,30)	(1,83)	(3,8)	(-16,7)	(-17,3)	(28,5)	(4,4)	(2,16)	(-19,4)	(-1,24)	(-6,5)	(-18,3)	(-12,4)	(-28,3)	(-11,5)	(-2,1)	
L2C 14>	(-32,6)	(1,66)	(-3,5)	(5,5)	(-4,5)	(-6,9)	(8,12)	(-1,27)	(-10,11)	(-2,5)	(-12,5)	(4,18)	(20,1)	(2,17)	(-13,18)	(-14,12)	
L2C 15>	(1,80)	(4,12)	(2,12)	(-14,17)	(-15,25)	(-2,7)	(11,3)	(-1,21)	(-31,5)	(-16,11)	(0,8)	(-10,4)	(-32,1)	(-3,2)	(34,8)	(7,5)	
L2C 16>	(-5,23)	(0,6)	(-17,10)	(12,6)	(-6,7)	(-15,17)	(1,57)	(-12,7)	(-16,36)	(-9,5)	(-1,13)	(2,11)	(-2,9)	(-18,1)	(-14,10)	(-41,2)	
L2C 17>	(1,55)	(-5,18)	(2,37)	(-16,20)	(3,1)	(-9,2)	(-10,4)	(-1,9)	(-7,3)	(-15,18)	(-28,3)	(37,2)	(-18,10)	(16,2)	(-17,19)	(23,4)	
L2C 18>	(3,8)	(2,6)	(-11,5)	(1,54)	(-8,1)	(-1,14)	(-25,2)	(-19,3)	(-17,6)	(-5,9)	(-3,2)	(-9,5)	(-22,6)	(-10,5)	(-20,4)	(-14,2)	
L2C 19>	(1,43)	(-11,3)	(5,7)	(-1,17)	(-19,76)	(-34,7)	(-26,4)	(2,16)	(-14,7)	(-18,10)	(-21,8)	(-15,5)	(4,1)	(-33,3)	(16,2)	(0,3)	
L2C 20>	(1,41)	(2,2)	(-2,1)	(-7,6)	(-37,1)	(-29,5)	(-22,3)	(20,1)	(-35,1)	(-51,1)	(-18,3)	(-1,22)	(-9,2)	(-16,3)	(31,1)	(3,9)	
L2C 21>	(1,26)	(4,10)	(-11,3)	(7,4)	(10,1)	(-16,4)	(-12,5)	(-21,47)	(-4,8)	(-2,11)	(-35,2)	(-27,5)	(-20,4)	(-1,9)	(-18,3)	(-22,5)	
L2C 22>	(-1,1)	(1,17)	(13,2)	(9,2)	(-37,2)	(-51,3)	(-5,4)	(-21,6)	(-20,3)	(-41,3)	(8,4)	(-13,2)	(0,4)	(-18,3)	(2,5)	(-11,3)	
L2C 23>	(-1,16)	(1,18)	(2,6)	(4,6)	(-30,3)	(-15,6)	(-38,1)	(-55,2)	(-12,3)	(-25,7)	(-7,3)	(-22,6)	(-6,2)	(-23,4)	(5,2)	(-2,4)	
L2C 24>	(6,4)	(1,17)	(-7,2)	(-1,6)	(3,3)	(-17,2)	(7,5)	(-24,4)	(-26,3)	(-19,4)	(-23,6)	(9,4)	(-16,5)	(-52,2)	(-2,5)	(8,1)	
L2C 25>	(5,4)	(11,2)	(-40,1)	(-25,8)	(-15,4)	(12,4)	(-29,4)	(7,4)	(24,1)	(-17,6)	(2,27)	(-3,2)	(-11,3)	(-8,2)	(1,13)	(-4,4)	
L2C 26>	(1,26)	(-1,7)	(5,2)	(-33,2)	(3,3)	(-5,1)	(-30,6)	(13,1)	(-11,2)	(-15,2)	(-35,7)	(-22,3)	(-46,1)	(-24,3)	(-14,2)	(22,1)	
L2C 27>	(1,31)	(-31,4)	(-19,29)	(-27,10)	(4,6)	(-21,5)	(-1,12)	(-17,4)	(-42,2)	(-12,4)	(-28,1)	(2,5)	(-26,5)	(-30,5)	(-4,8)	(-2,4)	
L2C 28>	(1,41)	(3,5)	(-27,7)	(-28,7)	(-30,1)	(6,2)	(-25,2)	(17,2)	(-5,2)	(2,6)	(-23,4)	(-12,7)	(-13,2)	(-24,2)	(-20,4)	(8,2)	
L2C 29>	(-33,3)	(-1,8)	(-30,1)	(-2,8)	(1,19)	(15,1)	(-9,1)	(-28,4)	(-22,2)	(-12,3)	(-20,1)	(-8,4)	(12,1)	(3,1)	(8,3)	(-17,4)	
L2C 30>	(-44,1)	(5,1)	(-6,2)	(7,2)	(1,26)	(-52,1)	(-34,2)	(-21,6)	(-2,6)	(-4,4)	(-23,1)	(-25,2)	(-30,3)	(-12,1)	(2,3)	(-1,5)	
L2C 31>	(10,2)	(-19,2)	(1,21)	(-1,9)	(-30,7)	(-14,2)	(4,4)	(12,3)	(3,4)	(16,2)	(-2,2)	(-31,6)	(0,1)	(-34,5)	(-9,1)	(5,2)	
L2C 32>	(1,33)	(-18,6)	(-1,8)	(-42,3)	(25,3)	(5,3)	(3,1)	(-46,1)	(-24,2)	(-16,5)	(-17,1)	(-20,2)	(-31,4)	(-49,1)	(2,2)	(6,1)	
L2C 33>	(1,27)	(-28,6)	(-32,9)	(4,2)	(-51,2)	(-31,2)	(-29,8)	(-25,4)	(-21,2)	(-23,2)	(-17,2)	(-11,1)	(-33,5)	(-34,4)	(-36,3)	(-15,3)	
L2C 34>	(1,21)	(-32,2)	(-42,2)	(-24,2)	(18,2)	(2,4)	(-19,2)	(-1,9)	(-36,1)	(-53,1)	(-4,1)	(-13,2)	(-33,6)	(-17,1)	(-2,5)	(-41,2)	
L2C 35>	(-34,3)	(-35,2)	(-41,1)	(-8,3)	(8,1)	(-20,2)	(-3,1)	(1,27)	(6,1)	(-22,2)	(-9,2)	(-30,3)	(-31,1)	(-1,6)	(-42,3)	(-27,2)	
L2C 36>	(-36,1)	(-55,1)	(-20,2)	(-40,2)	(4,3)	(1,20)	(11,1)	(18,1)	(-21,2)	(-32,3)	(-35,4)	(-26,1)	(-2,1)	(7,1)	(-11,2)	(-8,1)	
L2C 37>	(-1,3)	(5,4)	(-33,1)	(1,10)	(-19,1)	(-12,1)	(-21,2)	(-51,4)	(2,4)	(-20,2)	(-29,2)	(-32,3)	(-41,1)	(-9,2)	(-23,1)	(-36,4)	
L2C 38>	(-35,2)	(-63,1)	(1,7)	(-41,1)	(-29,2)	(11,2)	(-1,2)	(-19,3)	(-34,2)	(-14,1)	(6,1)	(-38,2)	(17,2)	(-15,1)	(-39,2)	(-24,2)	
L2C 39>	(-1,2)	(1,10)	(-41,3)	(-29,3)	(-5,1)	(0,1)	(7,1)	(-34,2)	(-4,1)	(8,2)	(-39,2)	(-38,2)	(-3,1)	(-8,1)	(-19,1)	(-18,2)	
L2C 40>	(1,14)	(-36,3)	(-1,6)	(-6,3)	(-4,8)	(-34,2)	(-32,3)	(5,3)	(-30,2)	(-42,6)	(12,1)	(14,1)	(10,1)	(-9,1)	(-39,1)	(8,3)	
L2C 41>	(-24,3)	(-2,2)	(-10,4)	(1,10)	(-13,1)	(-16,2)	(-7,1)	(14,1)	(-40,5)	(-42,11)	(-36,1)	(-28,1)	(-39,1)	(-41,3)	(-14,2)	(-19,2)	
L2C 42>	(8,3)	(-1,1)	(-9,3)	(1,5)	(-27,2)	(-2,1)	(-6,2)	(-35,1)	(-28,1)	(-7,2)	(-23,2)	(-34,2)	(-25,2)	(-22,1)	(0,3)	(-30,1)	
L2C 43>	(1,13)	(7,1)	(-46,1)	(-30,2)	(-21,2)	(-52,1)	(-2,2)	(5,1)	(-41,2)	(-4,1)	(-27,1)	(-1,5)	(-12,1)	(-60,1)	(-23,1)	(-9,2)	
L2C 44>	(-16,1)	(-13,1)	(-53,1)	(-42,1)	(-50,1)	(-41,1)	(-14,1)	(2,2)	(-1,2)	(-22,1)	(-45,1)	(-29,1)	(-40,1)	(-33,2)	(-15,1)	(1,4)	
L2C 45>	(5,4)	(1,12)	(-45,3)	(-2,1)	(-38,1)	(-8,3)	(9,1)	(-55,1)	(-42,1)	(-14,1)	(-7,1)	(-31,1)	(-44,1)	(-1,1)	(2,2)	(-3,1)	
L2C 46>	(-23,1)	(1,12)	(-20,1)	(-14,1)	(-4,3)	(-40,2)	(-45,3)	(4,2)	(-22,1)	(14,1)	(8,1)	(-1,2)	(0,3)	(2,1)	(-16,1)	(-21,1)	
L2C 47>	(5,1)	(-7,2)	(-53,1)	(-21,3)	(-34,1)	(-27,2)	(1,6)	(-54,1)	(-17,4)	(-58,2)	(-8,1)	(-19,1)	(-42,1)	(-44,1)	(-2,2)	(-11,2)	
L2C 48>	(-13,1)	(-2,1)	(1,11)	(-42,2)	(10,1)	(-1,2)	(3,1)	(-10,1)	(-18,1)	(2,3)	(-56,2)	(-46,1)	(-3,1)	(-16,2)	(-37,1)	(-32,1)	
L2C 49>	(5,3)	(1,23)	(-33,1)	(-52,2)	(2,3)	(-23,1)	(-2,1)	(-34,2)	(-50,2)	(-32,1)	(-14,1)	(-7,2)	(-40,1)	(-45,1)	(-10,1)	(-25,1)	
L2C 50>	(1,22)	(-4,2)	(-5,3)	(4,2)	(-59,1)	(-33,2)	(-47,2)	(-31,1)	(-50,3)	(-20,1)	(-21,1)	(-9,1)	(-52,1)	(-29,1)	(-24,1)	(6,1)	
L2C 51>	(0,2)	(5,3)	(2,1)	(-58,1)	(-51,5)	(1,12)	(-1,3)	(-17,1)	(-35,1)	(-26,1)	(-14,1)	(-50,1)	(-11,1)	(-22,1)	(-52,1)	(4,2)	
L2C 52>	(-51,3)	(-1,2)	(1,7)	(-35,1)	(-47,1)	(-3,1)	(-39,1)	(-42,2)	(-52,3)	(-60,1)	(-34,1)	(-23,1)	(-53,1)	(0,1)	(-55,1)	(-13,1)	
L2C 53>	(-8,1)	(-51,1)	(-52,4)	(-37,1)	(-30,1)	(-46,1)	(-17,1)	(-43,1)	(0,1)	(-50,1)	(1,2)	(-16,1)	(-48,1)	(-29,1)	(-39,1)	(-32,1)	
L2C 54>	(5,2)	(1,3)	(0,2)	(-46,1)	(6,1)	(3,1)	(-42,3)	(-53,1)	(-13,1)	(-54,1)	(-55,1)	(-47,1)	(2,1)	(-23,1)	(-45,1)	(-52,1)	
L2C 55>	(4,1)	(-55,10)	(0,9)	(-10,1)	(-41,3)	(-16,1)	(-8,1)	(1,6)	(-1,2)	(-32,1)	(-19,1)	(-38,2)	(-54,3)	(-53,1)	(-50,3)	(-4,1)	
L2C 56>	(-54,2)	(-7,1)	(-28,1)	(-24,1)	(1,1)	(-4,1)	(-16,2)	(-18,2)	(-45,1)	(-51,1)	(-23,2)	(-30,1)	(0,2)	(-1,1)	(-15,1)	(-2,1)	
L2C 57>	(-2,1)	(-60,2)	(-28,2)	(-51,1)	(-32,1)	(3,1)	(-39,1)	(1,1)	(-1,1)	(2,1)	(-48,1)	(-49,1)	(-55,1)	(-26,1)	(1,0)	(1,0)	
L2C 58>	(0,1)	(-10,1)	(-43,1)	(-35,1)	(-25,2)	(-13,1)	(-1,2)	(-5,1)	(1,0)	(1,0)	(1,0)	(1,0)	(1,0)	(1,0)	(1,0)	(1,0)	
L2C 59>	(1,6)	(-20,2)	(-61,1)	(0,2)	(-13,1)	(-25,4)	(-55,1)	(-1,1)	(-46,1)	(-26,1)	(-16,1)	(-59,1)	(-44,1)	(-8,2)	(-52,1)	(-49,2)	
L2C 60>	(-53,4)	(1,2)	(-23,1)	(-52,1)	(-18,1)	(2,1)	(-33,1)	(-60,1)	(-7,1)	(-1,2)	(-35,1)	(-47,1)	(-8,1)	(-9,1)	(-32,1)	(1,0)	
L2C 61>	(1,0)	(1,0)	(1,0)	(1,0)	(1,0)	(1,0)	(1,0)	(1,0)	(1,0)	(1,0)	(1,0)	(1,0)	(1,0)	(1,0)	(1,0)	(1,0)	
L2C 62>	(-10,1)	(1,0)	(1,0)	(1,0)	(1,0)	(1,0)	(1,0)	(1,0)	(1,0)	(1,0)	(1,0)	(1,0)	(1,0)	(1,0)	(1,0)	(1,0)	
L2C 63>	(-43,1)	(-22,1)	(1,0)	(1,0)	(1,0)	(1,0)	(1,0)	(1,0)	(1,0)	(1,0)	(1,0)	(1,0)	(1,0)	(1,0)	(1,0)	(1,0)	

DRAM Statistics
 CHANNEL 0
 RQ ROW_BUFFER_HIT:     109785  ROW_BUFFER_MISS:     170160
 DBUS_CONGESTED:     241844
 WQ ROW_BUFFER_HIT:      21822  ROW_BUFFER_MISS:      93681  FULL:          0

 AVG_CONGESTED_CYCLE: 6
