Initialize SIGNATURE TABLE
ST_SET: 1
ST_WAY: 256
ST_TAG_BIT: 16
ST_TAG_MASK: ffff

Initialize PATTERN TABLE
PT_SET: 512
PT_WAY: 4
SIG_DELTA_BIT: 7
C_SIG_BIT: 4
C_DELTA_BIT: 4

Initialize PREFETCH FILTER
FILTER_SET: 1024

*** ChampSim Multicore Out-of-Order Simulator ***

Warmup Instructions: 1000000
Simulation Instructions: 10000000
Number of CPUs: 4
LLC sets: 8192
LLC ways: 16
Off-chip DRAM Size: 4096 MB Channels: 1 Width: 64-bit Data Rate: 3200 MT/s

CPU 0 runs /home/virtualcse/Data-Prefetching/ChampSim/dpc3_traces/619.lbm_s-2676B.champsimtrace.xz
CPU 1 runs /home/virtualcse/Data-Prefetching/ChampSim/dpc3_traces/638.imagick_s-824B.champsimtrace.xz
CPU 2 runs /home/virtualcse/Data-Prefetching/ChampSim/dpc3_traces/625.x264_s-18B.champsimtrace.xz
CPU 3 runs /home/virtualcse/Data-Prefetching/ChampSim/dpc3_traces/654.roms_s-1070B.champsimtrace.xz

Warmup complete CPU 0 instructions: 1367878 cycles: 465128 (Simulation time: 0 hr 0 min 9 sec) 
Warmup complete CPU 1 instructions: 1484583 cycles: 465128 (Simulation time: 0 hr 0 min 9 sec) 
Warmup complete CPU 2 instructions: 1375913 cycles: 465128 (Simulation time: 0 hr 0 min 9 sec) 
Warmup complete CPU 3 instructions: 1000004 cycles: 465128 (Simulation time: 0 hr 0 min 9 sec) 

Heartbeat CPU 1 instructions: 10000002 cycles: 5473535 heartbeat IPC: 1.82697 cumulative IPC: 1.70022 (Simulation time: 0 hr 0 min 50 sec) 
Heartbeat CPU 2 instructions: 10000000 cycles: 5615639 heartbeat IPC: 1.78074 cumulative IPC: 1.67441 (Simulation time: 0 hr 0 min 51 sec) 
Finished CPU 1 instructions: 10000003 cycles: 5871808 cumulative IPC: 1.70305 (Simulation time: 0 hr 0 min 56 sec) 
Finished CPU 2 instructions: 10000002 cycles: 5966364 cumulative IPC: 1.67606 (Simulation time: 0 hr 0 min 57 sec) 
Heartbeat CPU 1 instructions: 20000002 cycles: 11336079 heartbeat IPC: 1.70574 cumulative IPC: 1.7032 (Simulation time: 0 hr 1 min 33 sec) 
Heartbeat CPU 2 instructions: 20000001 cycles: 11801389 heartbeat IPC: 1.61662 cumulative IPC: 1.64288 (Simulation time: 0 hr 1 min 37 sec) 
Heartbeat CPU 1 instructions: 30000002 cycles: 17202176 heartbeat IPC: 1.70471 cumulative IPC: 1.70373 (Simulation time: 0 hr 2 min 20 sec) 
Heartbeat CPU 2 instructions: 30000003 cycles: 17477184 heartbeat IPC: 1.76187 cumulative IPC: 1.68258 (Simulation time: 0 hr 2 min 22 sec) 
Heartbeat CPU 3 instructions: 10000002 cycles: 17927263 heartbeat IPC: 0.55781 cumulative IPC: 0.515401 (Simulation time: 0 hr 2 min 26 sec) 
Finished CPU 3 instructions: 10000001 cycles: 19019120 cumulative IPC: 0.525787 (Simulation time: 0 hr 2 min 38 sec) 
Heartbeat CPU 1 instructions: 40000002 cycles: 23086024 heartbeat IPC: 1.69957 cumulative IPC: 1.70265 (Simulation time: 0 hr 3 min 7 sec) 
Heartbeat CPU 2 instructions: 40000001 cycles: 23146333 heartbeat IPC: 1.76393 cumulative IPC: 1.70291 (Simulation time: 0 hr 3 min 7 sec) 
Heartbeat CPU 0 instructions: 10000002 cycles: 25165632 heartbeat IPC: 0.397367 cumulative IPC: 0.349472 (Simulation time: 0 hr 3 min 24 sec) 
Heartbeat CPU 2 instructions: 50000002 cycles: 28668287 heartbeat IPC: 1.81095 cumulative IPC: 1.72407 (Simulation time: 0 hr 3 min 54 sec) 
Finished CPU 0 instructions: 10000002 cycles: 28373402 cumulative IPC: 0.352443 (Simulation time: 0 hr 3 min 55 sec) 

CPU 0 Branch Prediction Accuracy: 97.3426% MPKI: 0.445221 Average ROB Occupancy at Mispredict: 319.724

CPU 1 Branch Prediction Accuracy: 99.7832% MPKI: 0.24435 Average ROB Occupancy at Mispredict: 192.13

CPU 2 Branch Prediction Accuracy: 97.7083% MPKI: 0.823347 Average ROB Occupancy at Mispredict: 238.807

CPU 3 Branch Prediction Accuracy: 99.8912% MPKI: 0.0762866 Average ROB Occupancy at Mispredict: 347.836

ChampSim completed all CPUs

Total Simulation Statistics (not including warmup)

CPU 0 cumulative IPC: 0.352443 instructions: 10000002 cycles: 28373402
L1D TOTAL     ACCESS:    2523272  HIT:    1772770  MISS:     750502
L1D LOAD      ACCESS:     754873  HIT:     641147  MISS:     113726
L1D RFO       ACCESS:    1768399  HIT:    1131623  MISS:     636776
L1D PREFETCH  ACCESS:          0  HIT:          0  MISS:          0
L1D WRITEBACK ACCESS:          0  HIT:          0  MISS:          0
L1I TOTAL     ACCESS:     988913  HIT:     988913  MISS:          0
L1I LOAD      ACCESS:     988913  HIT:     988913  MISS:          0
L1I RFO       ACCESS:          0  HIT:          0  MISS:          0
L1I PREFETCH  ACCESS:          0  HIT:          0  MISS:          0
L1I WRITEBACK ACCESS:          0  HIT:          0  MISS:          0
L2C TOTAL     ACCESS:    1416353  HIT:     956246  MISS:     460107
L2C LOAD      ACCESS:     113726  HIT:      28672  MISS:      85054
L2C RFO       ACCESS:     636776  HIT:     290417  MISS:     346359
L2C PREFETCH  ACCESS:      29072  HIT:        401  MISS:      28671
L2C WRITEBACK ACCESS:     636779  HIT:     636756  MISS:         23
LLC TOTAL     ACCESS:    1053779  HIT:     598911  MISS:     454868
LLC LOAD      ACCESS:      65613  HIT:      52585  MISS:      13028
LLC RFO       ACCESS:     346354  HIT:       5245  MISS:     341109
LLC PREFETCH  ACCESS:     295655  HIT:     194939  MISS:     100716
LLC WRITEBACK ACCESS:     346157  HIT:     346142  MISS:         15

CPU 1 cumulative IPC: 1.70468 instructions: 48367512 cycles: 28373402
L1D TOTAL     ACCESS:    7919011  HIT:    7908642  MISS:      10369
L1D LOAD      ACCESS:    5499776  HIT:    5489440  MISS:      10336
L1D RFO       ACCESS:    2419235  HIT:    2419202  MISS:         33
L1D PREFETCH  ACCESS:          0  HIT:          0  MISS:          0
L1D WRITEBACK ACCESS:          0  HIT:          0  MISS:          0
L1I TOTAL     ACCESS:    5123950  HIT:    5123914  MISS:         36
L1I LOAD      ACCESS:    5123950  HIT:    5123914  MISS:         36
L1I RFO       ACCESS:          0  HIT:          0  MISS:          0
L1I PREFETCH  ACCESS:          0  HIT:          0  MISS:          0
L1I WRITEBACK ACCESS:          0  HIT:          0  MISS:          0
L2C TOTAL     ACCESS:      27788  HIT:      17491  MISS:      10297
L2C LOAD      ACCESS:      10372  HIT:       7513  MISS:       2859
L2C RFO       ACCESS:         33  HIT:         28  MISS:          5
L2C PREFETCH  ACCESS:       7468  HIT:         35  MISS:       7433
L2C WRITEBACK ACCESS:       9915  HIT:       9915  MISS:          0
LLC TOTAL     ACCESS:      88406  HIT:      75174  MISS:      13232
LLC LOAD      ACCESS:       2857  HIT:       2617  MISS:        240
LLC RFO       ACCESS:          5  HIT:          0  MISS:          5
LLC PREFETCH  ACCESS:      82714  HIT:      72557  MISS:      10157
LLC WRITEBACK ACCESS:       2830  HIT:          0  MISS:       2830

CPU 2 cumulative IPC: 1.72536 instructions: 48954458 cycles: 28373402
L1D TOTAL     ACCESS:    6797500  HIT:    6779732  MISS:      17768
L1D LOAD      ACCESS:    3566727  HIT:    3549584  MISS:      17143
L1D RFO       ACCESS:    3230773  HIT:    3230148  MISS:        625
L1D PREFETCH  ACCESS:          0  HIT:          0  MISS:          0
L1D WRITEBACK ACCESS:          0  HIT:          0  MISS:          0
L1I TOTAL     ACCESS:    2664856  HIT:    2664832  MISS:         24
L1I LOAD      ACCESS:    2664856  HIT:    2664832  MISS:         24
L1I RFO       ACCESS:          0  HIT:          0  MISS:          0
L1I PREFETCH  ACCESS:          0  HIT:          0  MISS:          0
L1I WRITEBACK ACCESS:          0  HIT:          0  MISS:          0
L2C TOTAL     ACCESS:      28213  HIT:      11989  MISS:      16224
L2C LOAD      ACCESS:      17167  HIT:       2435  MISS:      14732
L2C RFO       ACCESS:        625  HIT:         55  MISS:        570
L2C PREFETCH  ACCESS:       9804  HIT:       8884  MISS:        920
L2C WRITEBACK ACCESS:        617  HIT:        615  MISS:          2
LLC TOTAL     ACCESS:      28623  HIT:      11156  MISS:      17467
LLC LOAD      ACCESS:      13149  HIT:       5516  MISS:       7633
LLC RFO       ACCESS:        570  HIT:          1  MISS:        569
LLC PREFETCH  ACCESS:      14614  HIT:       5639  MISS:       8975
LLC WRITEBACK ACCESS:        290  HIT:          0  MISS:        290

CPU 3 cumulative IPC: 0.595516 instructions: 16896813 cycles: 28373402
L1D TOTAL     ACCESS:    2985971  HIT:    2586199  MISS:     399772
L1D LOAD      ACCESS:    2781482  HIT:    2531096  MISS:     250386
L1D RFO       ACCESS:     204489  HIT:      55103  MISS:     149386
L1D PREFETCH  ACCESS:          0  HIT:          0  MISS:          0
L1D WRITEBACK ACCESS:          0  HIT:          0  MISS:          0
L1I TOTAL     ACCESS:     796715  HIT:     796701  MISS:         14
L1I LOAD      ACCESS:     796715  HIT:     796701  MISS:         14
L1I RFO       ACCESS:          0  HIT:          0  MISS:          0
L1I PREFETCH  ACCESS:          0  HIT:          0  MISS:          0
L1I WRITEBACK ACCESS:          0  HIT:          0  MISS:          0
L2C TOTAL     ACCESS:     687315  HIT:     286182  MISS:     401133
L2C LOAD      ACCESS:     250400  HIT:     136296  MISS:     114104
L2C RFO       ACCESS:     149386  HIT:          0  MISS:     149386
L2C PREFETCH  ACCESS:     138138  HIT:        497  MISS:     137641
L2C WRITEBACK ACCESS:     149391  HIT:     149389  MISS:          2
LLC TOTAL     ACCESS:    1493499  HIT:    1078652  MISS:     414847
LLC LOAD      ACCESS:      89730  HIT:      73419  MISS:      16311
LLC RFO       ACCESS:     149387  HIT:          0  MISS:     149387
LLC PREFETCH  ACCESS:    1104917  HIT:     855770  MISS:     249147
LLC WRITEBACK ACCESS:     149465  HIT:     149463  MISS:          2

Region of Interest Statistics

CPU 0 cumulative IPC: 0.352443 instructions: 10000002 cycles: 28373402
L1D TOTAL     ACCESS:    2523272  HIT:    1772770  MISS:     750502
L1D LOAD      ACCESS:     754873  HIT:     641147  MISS:     113726
L1D RFO       ACCESS:    1768399  HIT:    1131623  MISS:     636776
L1D PREFETCH  ACCESS:          0  HIT:          0  MISS:          0
L1D WRITEBACK ACCESS:          0  HIT:          0  MISS:          0
L1D PREFETCH  REQUESTED:          0  ISSUED:          0  USEFUL:          0  USELESS:          0
L1D AVERAGE MISS LATENCY: 541.068 cycles
L1I TOTAL     ACCESS:     988913  HIT:     988913  MISS:          0
L1I LOAD      ACCESS:     988913  HIT:     988913  MISS:          0
L1I RFO       ACCESS:          0  HIT:          0  MISS:          0
L1I PREFETCH  ACCESS:          0  HIT:          0  MISS:          0
L1I WRITEBACK ACCESS:          0  HIT:          0  MISS:          0
L1I PREFETCH  REQUESTED:          0  ISSUED:          0  USEFUL:          0  USELESS:          0
L1I AVERAGE MISS LATENCY: -nan cycles
L2C TOTAL     ACCESS:    1416353  HIT:     956246  MISS:     460107
L2C LOAD      ACCESS:     113726  HIT:      28672  MISS:      85054
L2C RFO       ACCESS:     636776  HIT:     290417  MISS:     346359
L2C PREFETCH  ACCESS:      29072  HIT:        401  MISS:      28671
L2C WRITEBACK ACCESS:     636779  HIT:     636756  MISS:         23
L2C PREFETCH  REQUESTED:     934665  ISSUED:     934540  USEFUL:      33143  USELESS:          3
L2C AVERAGE MISS LATENCY: 861.496 cycles
LLC TOTAL     ACCESS:    1053779  HIT:     598911  MISS:     454868
LLC LOAD      ACCESS:      65613  HIT:      52585  MISS:      13028
LLC RFO       ACCESS:     346354  HIT:       5245  MISS:     341109
LLC PREFETCH  ACCESS:     295655  HIT:     194939  MISS:     100716
LLC WRITEBACK ACCESS:     346157  HIT:     346142  MISS:         15
LLC PREFETCH  REQUESTED:          0  ISSUED:          0  USEFUL:     146916  USELESS:     206236
LLC AVERAGE MISS LATENCY: 2141.87 cycles
Major fault: 0 Minor fault: 7090

CPU 1 cumulative IPC: 1.70305 instructions: 10000003 cycles: 5871808
L1D TOTAL     ACCESS:    1628568  HIT:    1626452  MISS:       2116
L1D LOAD      ACCESS:    1129462  HIT:    1127355  MISS:       2107
L1D RFO       ACCESS:     499106  HIT:     499097  MISS:          9
L1D PREFETCH  ACCESS:          0  HIT:          0  MISS:          0
L1D WRITEBACK ACCESS:          0  HIT:          0  MISS:          0
L1D PREFETCH  REQUESTED:          0  ISSUED:          0  USEFUL:          0  USELESS:          0
L1D AVERAGE MISS LATENCY: 230.555 cycles
L1I TOTAL     ACCESS:    1058421  HIT:    1058385  MISS:         36
L1I LOAD      ACCESS:    1058421  HIT:    1058385  MISS:         36
L1I RFO       ACCESS:          0  HIT:          0  MISS:          0
L1I PREFETCH  ACCESS:          0  HIT:          0  MISS:          0
L1I WRITEBACK ACCESS:          0  HIT:          0  MISS:          0
L1I PREFETCH  REQUESTED:          0  ISSUED:          0  USEFUL:          0  USELESS:          0
L1I AVERAGE MISS LATENCY: 597.139 cycles
L2C TOTAL     ACCESS:       5386  HIT:       3249  MISS:       2137
L2C LOAD      ACCESS:       2143  HIT:       1514  MISS:        629
L2C RFO       ACCESS:          9  HIT:          4  MISS:          5
L2C PREFETCH  ACCESS:       1518  HIT:         15  MISS:       1503
L2C WRITEBACK ACCESS:       1716  HIT:       1716  MISS:          0
L2C PREFETCH  REQUESTED:      86192  ISSUED:      86191  USEFUL:       7682  USELESS:          1
L2C AVERAGE MISS LATENCY: 325.32 cycles
LLC TOTAL     ACCESS:      16826  HIT:      14622  MISS:       2204
LLC LOAD      ACCESS:        629  HIT:        548  MISS:         81
LLC RFO       ACCESS:          5  HIT:          0  MISS:          5
LLC PREFETCH  ACCESS:      16192  HIT:      14074  MISS:       2118
LLC WRITEBACK ACCESS:          0  HIT:          0  MISS:          0
LLC PREFETCH  REQUESTED:          0  ISSUED:          0  USEFUL:     146916  USELESS:     206236
LLC AVERAGE MISS LATENCY: 442046 cycles
Major fault: 0 Minor fault: 191

CPU 2 cumulative IPC: 1.67606 instructions: 10000002 cycles: 5966364
L1D TOTAL     ACCESS:    1414772  HIT:    1410406  MISS:       4366
L1D LOAD      ACCESS:     735390  HIT:     731121  MISS:       4269
L1D RFO       ACCESS:     679382  HIT:     679285  MISS:         97
L1D PREFETCH  ACCESS:          0  HIT:          0  MISS:          0
L1D WRITEBACK ACCESS:          0  HIT:          0  MISS:          0
L1D PREFETCH  REQUESTED:          0  ISSUED:          0  USEFUL:          0  USELESS:          0
L1D AVERAGE MISS LATENCY: 2932.76 cycles
L1I TOTAL     ACCESS:     537950  HIT:     537948  MISS:          2
L1I LOAD      ACCESS:     537950  HIT:     537948  MISS:          2
L1I RFO       ACCESS:          0  HIT:          0  MISS:          0
L1I PREFETCH  ACCESS:          0  HIT:          0  MISS:          0
L1I WRITEBACK ACCESS:          0  HIT:          0  MISS:          0
L1I PREFETCH  REQUESTED:          0  ISSUED:          0  USEFUL:          0  USELESS:          0
L1I AVERAGE MISS LATENCY: 9849.5 cycles
L2C TOTAL     ACCESS:       6900  HIT:       2968  MISS:       3932
L2C LOAD      ACCESS:       4271  HIT:        581  MISS:       3690
L2C RFO       ACCESS:         97  HIT:         10  MISS:         87
L2C PREFETCH  ACCESS:       2445  HIT:       2290  MISS:        155
L2C WRITEBACK ACCESS:         87  HIT:         87  MISS:          0
L2C PREFETCH  REQUESTED:      41498  ISSUED:      41455  USEFUL:        922  USELESS:         43
L2C AVERAGE MISS LATENCY: 3314.3 cycles
LLC TOTAL     ACCESS:       6332  HIT:       2090  MISS:       4242
LLC LOAD      ACCESS:       3456  HIT:       1203  MISS:       2253
LLC RFO       ACCESS:         87  HIT:          0  MISS:         87
LLC PREFETCH  ACCESS:       2789  HIT:        887  MISS:       1902
LLC WRITEBACK ACCESS:          0  HIT:          0  MISS:          0
LLC PREFETCH  REQUESTED:          0  ISSUED:          0  USEFUL:     146916  USELESS:     206236
LLC AVERAGE MISS LATENCY: 229672 cycles
Major fault: 0 Minor fault: 438

CPU 3 cumulative IPC: 0.525787 instructions: 10000001 cycles: 19019120
L1D TOTAL     ACCESS:    1417772  HIT:    1142199  MISS:     275573
L1D LOAD      ACCESS:    1249867  HIT:    1102172  MISS:     147695
L1D RFO       ACCESS:     167905  HIT:      40027  MISS:     127878
L1D PREFETCH  ACCESS:          0  HIT:          0  MISS:          0
L1D WRITEBACK ACCESS:          0  HIT:          0  MISS:          0
L1D PREFETCH  REQUESTED:          0  ISSUED:          0  USEFUL:          0  USELESS:          0
L1D AVERAGE MISS LATENCY: 761.861 cycles
L1I TOTAL     ACCESS:     154688  HIT:     154674  MISS:         14
L1I LOAD      ACCESS:     154688  HIT:     154674  MISS:         14
L1I RFO       ACCESS:          0  HIT:          0  MISS:          0
L1I PREFETCH  ACCESS:          0  HIT:          0  MISS:          0
L1I WRITEBACK ACCESS:          0  HIT:          0  MISS:          0
L1I PREFETCH  REQUESTED:          0  ISSUED:          0  USEFUL:          0  USELESS:          0
L1I AVERAGE MISS LATENCY: 883.5 cycles
L2C TOTAL     ACCESS:     478923  HIT:     202496  MISS:     276427
L2C LOAD      ACCESS:     147709  HIT:      74502  MISS:      73207
L2C RFO       ACCESS:     127878  HIT:          0  MISS:     127878
L2C PREFETCH  ACCESS:      75739  HIT:        399  MISS:      75340
L2C WRITEBACK ACCESS:     127597  HIT:     127595  MISS:          2
L2C PREFETCH  REQUESTED:    2109327  ISSUED:    1734264  USEFUL:     145305  USELESS:       1396
L2C AVERAGE MISS LATENCY: 769.609 cycles
LLC TOTAL     ACCESS:     960605  HIT:     675916  MISS:     284689
LLC LOAD      ACCESS:      51690  HIT:      40722  MISS:      10968
LLC RFO       ACCESS:     127878  HIT:          0  MISS:     127878
LLC PREFETCH  ACCESS:     656285  HIT:     510444  MISS:     145841
LLC WRITEBACK ACCESS:     124752  HIT:     124750  MISS:          2
LLC PREFETCH  REQUESTED:          0  ISSUED:          0  USEFUL:     146916  USELESS:     206236
LLC AVERAGE MISS LATENCY: 3422.22 cycles
Major fault: 0 Minor fault: 6519

DRAM Statistics
 CHANNEL 0
 RQ ROW_BUFFER_HIT:     376016  ROW_BUFFER_MISS:     521262
 DBUS_CONGESTED:     980451
 WQ ROW_BUFFER_HIT:      81470  ROW_BUFFER_MISS:     396342  FULL:          0

 AVG_CONGESTED_CYCLE: 6
