
*** ChampSim Multicore Out-of-Order Simulator ***

Warmup Instructions: 1000000
Simulation Instructions: 10000000
Number of CPUs: 4
LLC sets: 8192
LLC ways: 16
Off-chip DRAM Size: 4096 MB Channels: 1 Width: 64-bit Data Rate: 3200 MT/s

CPU 0 runs /home/virtualcse/Data-Prefetching/ChampSim/dpc3_traces/621.wrf_s-6673B.champsimtrace.xz
CPU 1 runs /home/virtualcse/Data-Prefetching/ChampSim/dpc3_traces/620.omnetpp_s-874B.champsimtrace.xz
CPU 2 runs /home/virtualcse/Data-Prefetching/ChampSim/dpc3_traces/654.roms_s-1070B.champsimtrace.xz
CPU 3 runs /home/virtualcse/Data-Prefetching/ChampSim/dpc3_traces/607.cactuBSSN_s-2421B.champsimtrace.xz
Ultra pref. initializing...
Ultra pref. initialized
Ultra pref. initializing...
Ultra pref. initialized
Ultra pref. initializing...
Ultra pref. initialized
Ultra pref. initializing...
Ultra pref. initialized
Ultra pref. initializing...
Ultra pref. initialized
Ultra pref. initializing...
Ultra pref. initialized
Ultra pref. initializing...
Ultra pref. initialized
Ultra pref. initializing...
Ultra pref. initialized

Warmup complete CPU 0 instructions: 1536486 cycles: 548986 (Simulation time: 0 hr 0 min 12 sec) 
Warmup complete CPU 1 instructions: 1000003 cycles: 548986 (Simulation time: 0 hr 0 min 12 sec) 
Warmup complete CPU 2 instructions: 1180947 cycles: 548985 (Simulation time: 0 hr 0 min 12 sec) 
Warmup complete CPU 3 instructions: 1138368 cycles: 548985 (Simulation time: 0 hr 0 min 12 sec) 

Heartbeat CPU 0 instructions: 10000001 cycles: 6614511 heartbeat IPC: 1.51183 cumulative IPC: 1.39535 (Simulation time: 0 hr 1 min 4 sec) 
Finished CPU 0 instructions: 10000002 cycles: 7889655 cumulative IPC: 1.26748 (Simulation time: 0 hr 1 min 15 sec) 
Heartbeat CPU 3 instructions: 10000001 cycles: 8643223 heartbeat IPC: 1.15698 cumulative IPC: 1.09481 (Simulation time: 0 hr 1 min 17 sec) 
Finished CPU 3 instructions: 10000003 cycles: 9286170 cumulative IPC: 1.07687 (Simulation time: 0 hr 1 min 25 sec) 
Heartbeat CPU 2 instructions: 10000000 cycles: 15423516 heartbeat IPC: 0.648361 cumulative IPC: 0.592896 (Simulation time: 0 hr 2 min 1 sec) 
Finished CPU 2 instructions: 10000003 cycles: 16969868 cumulative IPC: 0.58928 (Simulation time: 0 hr 2 min 13 sec) 
Heartbeat CPU 3 instructions: 20000000 cycles: 18192296 heartbeat IPC: 1.04722 cumulative IPC: 1.06905 (Simulation time: 0 hr 2 min 17 sec) 
Heartbeat CPU 0 instructions: 20000002 cycles: 22004284 heartbeat IPC: 0.649782 cumulative IPC: 0.860557 (Simulation time: 0 hr 2 min 42 sec) 
Heartbeat CPU 2 instructions: 20000001 cycles: 27473963 heartbeat IPC: 0.829845 cumulative IPC: 0.698944 (Simulation time: 0 hr 3 min 23 sec) 
Heartbeat CPU 3 instructions: 30000001 cycles: 27627389 heartbeat IPC: 1.05987 cumulative IPC: 1.06585 (Simulation time: 0 hr 3 min 24 sec) 
Heartbeat CPU 0 instructions: 30000003 cycles: 32688744 heartbeat IPC: 0.935939 cumulative IPC: 0.885617 (Simulation time: 0 hr 4 min 5 sec) 
Heartbeat CPU 3 instructions: 40000000 cycles: 36805819 heartbeat IPC: 1.08951 cumulative IPC: 1.07184 (Simulation time: 0 hr 4 min 33 sec) 
Heartbeat CPU 1 instructions: 10000002 cycles: 42844263 heartbeat IPC: 0.233404 cumulative IPC: 0.21279 (Simulation time: 0 hr 5 min 2 sec) 
Heartbeat CPU 2 instructions: 30000001 cycles: 42882304 heartbeat IPC: 0.648999 cumulative IPC: 0.680765 (Simulation time: 0 hr 5 min 2 sec) 
Heartbeat CPU 3 instructions: 50000003 cycles: 46573282 heartbeat IPC: 1.02381 cumulative IPC: 1.06165 (Simulation time: 0 hr 5 min 21 sec) 
Finished CPU 1 instructions: 10000001 cycles: 48231571 cumulative IPC: 0.207333 (Simulation time: 0 hr 5 min 32 sec) 

CPU 0 Branch Prediction Accuracy: 99.3328% MPKI: 0.425586 Average ROB Occupancy at Mispredict: 257.765

CPU 1 Branch Prediction Accuracy: 96.7094% MPKI: 4.878 Average ROB Occupancy at Mispredict: 100.353

CPU 2 Branch Prediction Accuracy: 99.8787% MPKI: 0.0726374 Average ROB Occupancy at Mispredict: 346.982

CPU 3 Branch Prediction Accuracy: 99.7755% MPKI: 0.0156049 Average ROB Occupancy at Mispredict: 46.4918

ChampSim completed all CPUs

Total Simulation Statistics (not including warmup)

CPU 0 cumulative IPC: 0.722703 instructions: 34857097 cycles: 48231571
L1D TOTAL     ACCESS:   13517732  HIT:   12902646  MISS:     615086
L1D LOAD      ACCESS:    6739529  HIT:    6583615  MISS:     155914
L1D RFO       ACCESS:    1399460  HIT:    1335510  MISS:      63950
L1D PREFETCH  ACCESS:    5378743  HIT:    4983521  MISS:     395222
L1D WRITEBACK ACCESS:          0  HIT:          0  MISS:          0
L1I TOTAL     ACCESS:    1773880  HIT:    1773051  MISS:        829
L1I LOAD      ACCESS:    1773880  HIT:    1773051  MISS:        829
L1I RFO       ACCESS:          0  HIT:          0  MISS:          0
L1I PREFETCH  ACCESS:          0  HIT:          0  MISS:          0
L1I WRITEBACK ACCESS:          0  HIT:          0  MISS:          0
L2C TOTAL     ACCESS:    1549213  HIT:    1002892  MISS:     546321
L2C LOAD      ACCESS:      90986  HIT:      46958  MISS:      44028
L2C RFO       ACCESS:      63946  HIT:       1762  MISS:      62184
L2C PREFETCH  ACCESS:    1187517  HIT:     747438  MISS:     440079
L2C WRITEBACK ACCESS:     206764  HIT:     206734  MISS:         30

L1D -512>	(146,1)	(292,3)	(-1,12)	(-2,3)	(1,51)	(2,40)	(10,4)	(68,6)	(28,7)	(0,120)	(5,6)	(4,58)	(-9,9)	(3,16)	(6,14)	(8,23)	
L1D -511>	(1,29)	(2,57)	(3,23)	(4,21)	(6,10)	(5,1)	(0,5)	(7,1)	(8,1)	(1,0)	(1,0)	(1,0)	(1,0)	(1,0)	(1,0)	(1,0)	
L1D -510>	(2,118)	(0,1)	(-1,1)	(4,8)	(18,2)	(3,1)	(1,4)	(6,11)	(1,0)	(1,0)	(1,0)	(1,0)	(1,0)	(1,0)	(1,0)	(1,0)	
L1D -509>	(-1,39)	(2,93)	(1,21)	(3,9)	(4,19)	(6,1)	(10,1)	(1,0)	(1,0)	(1,0)	(1,0)	(1,0)	(1,0)	(1,0)	(1,0)	(1,0)	
L1D -508>	(2,83)	(6,2)	(-1,3)	(1,6)	(4,11)	(5,0)	(3,1)	(-2,1)	(52,0)	(1,0)	(1,0)	(1,0)	(1,0)	(1,0)	(1,0)	(1,0)	
L1D -507>	(2,24)	(-1,5)	(3,2)	(4,4)	(1,7)	(42,1)	(0,1)	(-2,1)	(1,0)	(1,0)	(1,0)	(1,0)	(1,0)	(1,0)	(1,0)	(1,0)	
L1D -506>	(-1,5)	(2,85)	(3,6)	(1,14)	(4,6)	(-2,1)	(6,3)	(42,1)	(1,0)	(1,0)	(1,0)	(1,0)	(1,0)	(1,0)	(1,0)	(1,0)	
L1D -505>	(-1,6)	(5,1)	(2,13)	(1,3)	(-6,2)	(4,2)	(3,1)	(1,0)	(1,0)	(1,0)	(1,0)	(1,0)	(1,0)	(1,0)	(1,0)	(1,0)	
L1D -504>	(-1,9)	(6,4)	(98,2)	(9,2)	(2,16)	(47,1)	(4,9)	(-2,2)	(7,1)	(8,1)	(0,1)	(1,0)	(1,0)	(1,0)	(1,0)	(1,0)	
L1D -503>	(-1,7)	(2,7)	(18,1)	(4,3)	(1,0)	(1,0)	(1,0)	(1,0)	(1,0)	(1,0)	(1,0)	(1,0)	(1,0)	(1,0)	(1,0)	(1,0)	
L1D -502>	(98,1)	(112,1)	(47,1)	(79,1)	(1,0)	(1,0)	(1,0)	(1,0)	(1,0)	(1,0)	(1,0)	(1,0)	(1,0)	(1,0)	(1,0)	(1,0)	
L1D -501>	(0,1)	(3,2)	(2,2)	(-2,1)	(1,1)	(1,0)	(1,0)	(1,0)	(1,0)	(1,0)	(1,0)	(1,0)	(1,0)	(1,0)	(1,0)	(1,0)	
L1D -500>	(112,1)	(5,1)	(99,1)	(4,1)	(98,1)	(1,0)	(1,0)	(1,0)	(1,0)	(1,0)	(1,0)	(1,0)	(1,0)	(1,0)	(1,0)	(1,0)	
L1D -499>	(0,2)	(3,2)	(4,2)	(2,2)	(-2,1)	(1,0)	(1,0)	(1,0)	(1,0)	(1,0)	(1,0)	(1,0)	(1,0)	(1,0)	(1,0)	(1,0)	
L1D -498>	(2,9)	(69,1)	(6,2)	(106,1)	(93,1)	(4,3)	(1,1)	(42,2)	(47,1)	(1,0)	(1,0)	(1,0)	(1,0)	(1,0)	(1,0)	(1,0)	
L1D -497>	(2,4)	(0,3)	(-1,1)	(4,1)	(-2,1)	(1,1)	(1,0)	(1,0)	(1,0)	(1,0)	(1,0)	(1,0)	(1,0)	(1,0)	(1,0)	(1,0)	
L1D -496>	(82,1)	(-1,1)	(2,5)	(135,1)	(332,1)	(1,0)	(1,0)	(1,0)	(1,0)	(1,0)	(1,0)	(1,0)	(1,0)	(1,0)	(1,0)	(1,0)	
L1D -495>	(-1,3)	(1,3)	(2,5)	(4,2)	(3,1)	(1,0)	(1,0)	(1,0)	(1,0)	(1,0)	(1,0)	(1,0)	(1,0)	(1,0)	(1,0)	(1,0)	
L1D -494>	(102,1)	(1,2)	(-1,1)	(4,1)	(2,1)	(334,1)	(99,1)	(1,0)	(1,0)	(1,0)	(1,0)	(1,0)	(1,0)	(1,0)	(1,0)	(1,0)	
L1D -493>	(1,1)	(2,2)	(4,2)	(5,1)	(1,0)	(1,0)	(1,0)	(1,0)	(1,0)	(1,0)	(1,0)	(1,0)	(1,0)	(1,0)	(1,0)	(1,0)	
L1D -492>	(2,5)	(4,4)	(1,4)	(5,1)	(79,1)	(-16,1)	(0,1)	(1,0)	(1,0)	(1,0)	(1,0)	(1,0)	(1,0)	(1,0)	(1,0)	(1,0)	
L1D -491>	(1,2)	(0,2)	(3,1)	(2,3)	(5,1)	(1,0)	(1,0)	(1,0)	(1,0)	(1,0)	(1,0)	(1,0)	(1,0)	(1,0)	(1,0)	(1,0)	
L1D -490>	(-1,1)	(1,2)	(2,4)	(47,2)	(-2,1)	(3,1)	(1,0)	(1,0)	(1,0)	(1,0)	(1,0)	(1,0)	(1,0)	(1,0)	(1,0)	(1,0)	
L1D -489>	(1,2)	(-1,3)	(490,1)	(38,30)	(37,24)	(75,9)	(112,2)	(262,1)	(150,1)	(225,1)	(300,2)	(4,1)	(3,1)	(0,1)	(2,2)	(1,0)	
L1D -488>	(47,6)	(79,1)	(342,1)	(4,1)	(1,1)	(2,5)	(65,1)	(1,0)	(1,0)	(1,0)	(1,0)	(1,0)	(1,0)	(1,0)	(1,0)	(1,0)	
L1D -487>	(1,4)	(13,1)	(0,1)	(1,0)	(1,0)	(1,0)	(1,0)	(1,0)	(1,0)	(1,0)	(1,0)	(1,0)	(1,0)	(1,0)	(1,0)	(1,0)	
L1D -486>	(0,6)	(2,4)	(98,1)	(4,1)	(1,1)	(44,1)	(146,1)	(55,1)	(1,0)	(1,0)	(1,0)	(1,0)	(1,0)	(1,0)	(1,0)	(1,0)	
L1D -485>	(1,1)	(4,1)	(2,2)	(3,3)	(0,1)	(1,0)	(1,0)	(1,0)	(1,0)	(1,0)	(1,0)	(1,0)	(1,0)	(1,0)	(1,0)	(1,0)	
L1D -484>	(2,6)	(4,1)	(85,2)	(93,1)	(0,2)	(99,1)	(1,0)	(1,0)	(1,0)	(1,0)	(1,0)	(1,0)	(1,0)	(1,0)	(1,0)	(1,0)	
L1D -483>	(1,3)	(483,1)	(3,1)	(4,1)	(2,1)	(5,1)	(6,1)	(348,1)	(0,1)	(1,0)	(1,0)	(1,0)	(1,0)	(1,0)	(1,0)	(1,0)	
L1D -482>	(98,3)	(424,1)	(2,5)	(4,1)	(105,1)	(1,0)	(1,0)	(1,0)	(1,0)	(1,0)	(1,0)	(1,0)	(1,0)	(1,0)	(1,0)	(1,0)	
L1D -481>	(140,1)	(-1,3)	(4,1)	(2,2)	(1,0)	(1,0)	(1,0)	(1,0)	(1,0)	(1,0)	(1,0)	(1,0)	(1,0)	(1,0)	(1,0)	(1,0)	
L1D -480>	(14,1)	(146,1)	(2,9)	(0,2)	(192,1)	(79,1)	(99,1)	(1,0)	(1,0)	(1,0)	(1,0)	(1,0)	(1,0)	(1,0)	(1,0)	(1,0)	
L1D -479>	(-1,2)	(4,1)	(348,1)	(1,1)	(12,1)	(3,2)	(350,1)	(1,0)	(1,0)	(1,0)	(1,0)	(1,0)	(1,0)	(1,0)	(1,0)	(1,0)	
L1D -478>	(5,1)	(34,1)	(4,1)	(28,1)	(1,1)	(2,1)	(0,3)	(67,1)	(47,1)	(352,1)	(1,0)	(1,0)	(1,0)	(1,0)	(1,0)	(1,0)	
L1D -477>	(8,1)	(1,1)	(2,1)	(0,1)	(3,1)	(1,0)	(1,0)	(1,0)	(1,0)	(1,0)	(1,0)	(1,0)	(1,0)	(1,0)	(1,0)	(1,0)	
L1D -476>	(2,7)	(-1,1)	(3,1)	(1,1)	(4,2)	(0,8)	(58,1)	(1,0)	(1,0)	(1,0)	(1,0)	(1,0)	(1,0)	(1,0)	(1,0)	(1,0)	
L1D -475>	(2,3)	(3,2)	(136,1)	(4,1)	(-2,1)	(0,1)	(1,2)	(1,0)	(1,0)	(1,0)	(1,0)	(1,0)	(1,0)	(1,0)	(1,0)	(1,0)	
L1D -474>	(55,1)	(-1,1)	(0,1)	(5,1)	(2,4)	(264,1)	(3,1)	(1,1)	(1,0)	(1,0)	(1,0)	(1,0)	(1,0)	(1,0)	(1,0)	(1,0)	
L1D -473>	(-1,3)	(1,1)	(0,2)	(2,3)	(140,1)	(4,1)	(1,0)	(1,0)	(1,0)	(1,0)	(1,0)	(1,0)	(1,0)	(1,0)	(1,0)	(1,0)	
L1D -472>	(1,3)	(2,6)	(4,2)	(356,1)	(101,1)	(5,1)	(0,2)	(336,1)	(1,0)	(1,0)	(1,0)	(1,0)	(1,0)	(1,0)	(1,0)	(1,0)	
L1D -471>	(1,1)	(0,1)	(366,1)	(146,1)	(360,1)	(1,0)	(1,0)	(1,0)	(1,0)	(1,0)	(1,0)	(1,0)	(1,0)	(1,0)	(1,0)	(1,0)	
L1D -470>	(2,2)	(0,8)	(408,1)	(45,1)	(1,0)	(1,0)	(1,0)	(1,0)	(1,0)	(1,0)	(1,0)	(1,0)	(1,0)	(1,0)	(1,0)	(1,0)	
L1D -469>	(1,2)	(116,1)	(82,1)	(1,0)	(1,0)	(1,0)	(1,0)	(1,0)	(1,0)	(1,0)	(1,0)	(1,0)	(1,0)	(1,0)	(1,0)	(1,0)	
L1D -468>	(2,7)	(107,1)	(69,1)	(1,3)	(4,1)	(346,1)	(1,0)	(1,0)	(1,0)	(1,0)	(1,0)	(1,0)	(1,0)	(1,0)	(1,0)	(1,0)	
L1D -467>	(3,2)	(0,2)	(439,1)	(126,1)	(108,1)	(-1,1)	(4,1)	(1,0)	(1,0)	(1,0)	(1,0)	(1,0)	(1,0)	(1,0)	(1,0)	(1,0)	
L1D -466>	(-1,1)	(160,1)	(2,4)	(0,2)	(4,2)	(42,3)	(344,1)	(1,1)	(82,1)	(1,0)	(1,0)	(1,0)	(1,0)	(1,0)	(1,0)	(1,0)	
L1D -465>	(-42,1)	(364,1)	(29,1)	(2,1)	(-1,1)	(1,0)	(1,0)	(1,0)	(1,0)	(1,0)	(1,0)	(1,0)	(1,0)	(1,0)	(1,0)	(1,0)	
L1D -464>	(14,1)	(-1,1)	(41,1)	(0,2)	(-42,1)	(3,1)	(366,1)	(467,1)	(1,0)	(1,0)	(1,0)	(1,0)	(1,0)	(1,0)	(1,0)	(1,0)	
L1D -463>	(-42,1)	(0,1)	(2,1)	(52,1)	(1,0)	(1,0)	(1,0)	(1,0)	(1,0)	(1,0)	(1,0)	(1,0)	(1,0)	(1,0)	(1,0)	(1,0)	
L1D -462>	(129,1)	(172,1)	(6,1)	(134,1)	(-42,1)	(366,1)	(0,2)	(1,1)	(77,1)	(268,1)	(1,0)	(1,0)	(1,0)	(1,0)	(1,0)	(1,0)	
L1D -461>	(108,2)	(465,1)	(68,1)	(29,1)	(0,1)	(-10,1)	(112,1)	(1,0)	(1,0)	(1,0)	(1,0)	(1,0)	(1,0)	(1,0)	(1,0)	(1,0)	
L1D -460>	(97,1)	(85,2)	(344,1)	(1,1)	(47,1)	(0,1)	(1,0)	(1,0)	(1,0)	(1,0)	(1,0)	(1,0)	(1,0)	(1,0)	(1,0)	(1,0)	
L1D -459>	(120,1)	(288,1)	(113,1)	(459,1)	(368,1)	(1,2)	(5,1)	(0,1)	(124,1)	(1,0)	(1,0)	(1,0)	(1,0)	(1,0)	(1,0)	(1,0)	
L1D -458>	(91,2)	(0,2)	(374,1)	(354,1)	(362,1)	(1,2)	(134,1)	(-6,1)	(98,1)	(1,0)	(1,0)	(1,0)	(1,0)	(1,0)	(1,0)	(1,0)	
L1D -457>	(44,1)	(1,3)	(0,2)	(2,2)	(112,1)	(1,0)	(1,0)	(1,0)	(1,0)	(1,0)	(1,0)	(1,0)	(1,0)	(1,0)	(1,0)	(1,0)	
L1D -456>	(4,3)	(71,1)	(374,1)	(1,2)	(91,1)	(0,3)	(-42,1)	(372,1)	(385,1)	(2,1)	(370,1)	(5,1)	(1,0)	(1,0)	(1,0)	(1,0)	
L1D -455>	(1,3)	(68,16)	(-10,1)	(2,4)	(86,1)	(124,1)	(29,1)	(1,0)	(1,0)	(1,0)	(1,0)	(1,0)	(1,0)	(1,0)	(1,0)	(1,0)	
L1D -454>	(98,1)	(0,14)	(79,1)	(6,1)	(1,20)	(57,2)	(83,1)	(457,3)	(442,1)	(455,1)	(85,2)	(374,1)	(1,0)	(1,0)	(1,0)	(1,0)	
L1D -453>	(-1,2)	(1,2)	(334,1)	(2,1)	(110,1)	(454,1)	(-10,1)	(447,1)	(1,0)	(1,0)	(1,0)	(1,0)	(1,0)	(1,0)	(1,0)	(1,0)	
L1D -452>	(2,1)	(4,1)	(1,3)	(69,1)	(75,2)	(150,4)	(38,12)	(263,3)	(300,1)	(113,1)	(318,1)	(378,1)	(366,1)	(1,0)	(1,0)	(1,0)	
L1D -451>	(2,1)	(378,1)	(37,19)	(75,3)	(150,2)	(112,1)	(70,3)	(0,1)	(120,1)	(1,0)	(1,0)	(1,0)	(1,0)	(1,0)	(1,0)	(1,0)	
L1D -450>	(1,1)	(2,3)	(5,1)	(0,1)	(97,1)	(342,1)	(1,0)	(1,0)	(1,0)	(1,0)	(1,0)	(1,0)	(1,0)	(1,0)	(1,0)	(1,0)	
L1D -449>	(68,97)	(2,4)	(110,1)	(423,1)	(1,1)	(1,0)	(1,0)	(1,0)	(1,0)	(1,0)	(1,0)	(1,0)	(1,0)	(1,0)	(1,0)	(1,0)	
L1D -448>	(61,1)	(378,2)	(0,6)	(68,4)	(-42,3)	(380,1)	(1,1)	(3,1)	(5,1)	(48,1)	(1,0)	(1,0)	(1,0)	(1,0)	(1,0)	(1,0)	
L1D -447>	(5,4)	(0,2)	(1,6)	(-6,1)	(108,1)	(-14,1)	(414,2)	(-28,1)	(1,0)	(1,0)	(1,0)	(1,0)	(1,0)	(1,0)	(1,0)	(1,0)	
L1D -446>	(4,3)	(2,1)	(77,1)	(0,2)	(1,1)	(96,1)	(382,1)	(1,0)	(1,0)	(1,0)	(1,0)	(1,0)	(1,0)	(1,0)	(1,0)	(1,0)	
L1D -445>	(5,1)	(2,3)	(-10,1)	(380,1)	(1,1)	(1,0)	(1,0)	(1,0)	(1,0)	(1,0)	(1,0)	(1,0)	(1,0)	(1,0)	(1,0)	(1,0)	
L1D -444>	(0,8)	(2,2)	(1,2)	(451,1)	(445,1)	(310,1)	(105,1)	(356,1)	(384,2)	(1,0)	(1,0)	(1,0)	(1,0)	(1,0)	(1,0)	(1,0)	
L1D -443>	(-28,1)	(386,1)	(1,3)	(5,1)	(402,1)	(0,1)	(217,1)	(102,1)	(1,0)	(1,0)	(1,0)	(1,0)	(1,0)	(1,0)	(1,0)	(1,0)	
L1D -442>	(1,4)	(386,1)	(53,2)	(336,1)	(-1,1)	(2,3)	(0,2)	(-36,1)	(40,1)	(216,1)	(61,1)	(214,1)	(409,1)	(1,0)	(1,0)	(1,0)	
L1D -441>	(-1,2)	(-42,1)	(29,1)	(2,2)	(0,1)	(60,1)	(-10,1)	(122,1)	(5,1)	(396,1)	(1,0)	(1,0)	(1,0)	(1,0)	(1,0)	(1,0)	
L1D -440>	(61,3)	(42,1)	(0,1)	(1,2)	(-2,1)	(-42,3)	(5,1)	(34,1)	(73,1)	(440,1)	(1,0)	(1,0)	(1,0)	(1,0)	(1,0)	(1,0)	
L1D -439>	(-1,1)	(1,4)	(0,3)	(258,1)	(5,3)	(116,2)	(124,1)	(390,1)	(2,1)	(14,1)	(1,0)	(1,0)	(1,0)	(1,0)	(1,0)	(1,0)	
L1D -438>	(2,1)	(53,1)	(438,2)	(79,1)	(118,1)	(61,1)	(390,1)	(1,1)	(4,2)	(91,1)	(392,1)	(1,0)	(1,0)	(1,0)	(1,0)	(1,0)	
L1D -437>	(1,4)	(33,1)	(336,1)	(-20,1)	(10,1)	(345,11)	(2,1)	(278,1)	(390,1)	(102,1)	(5,1)	(1,0)	(1,0)	(1,0)	(1,0)	(1,0)	
L1D -436>	(-1,2)	(0,4)	(63,3)	(4,1)	(2,2)	(436,2)	(1,1)	(108,1)	(390,1)	(433,1)	(54,1)	(118,1)	(107,1)	(437,1)	(392,1)	(1,0)	
L1D -435>	(1,3)	(0,3)	(-1,2)	(70,1)	(276,1)	(2,2)	(1,0)	(1,0)	(1,0)	(1,0)	(1,0)	(1,0)	(1,0)	(1,0)	(1,0)	(1,0)	
L1D -434>	(1,13)	(-43,1)	(0,4)	(392,1)	(5,4)	(63,1)	(108,1)	(4,1)	(401,1)	(2,3)	(394,1)	(124,1)	(1,0)	(1,0)	(1,0)	(1,0)	
L1D -433>	(1,8)	(2,2)	(-1,1)	(15,1)	(-34,1)	(61,1)	(5,3)	(396,1)	(0,1)	(1,0)	(1,0)	(1,0)	(1,0)	(1,0)	(1,0)	(1,0)	
L1D -432>	(414,2)	(394,3)	(396,1)	(2,2)	(1,4)	(5,1)	(0,3)	(3,2)	(-42,1)	(61,1)	(1,0)	(1,0)	(1,0)	(1,0)	(1,0)	(1,0)	
L1D -431>	(-20,1)	(0,4)	(300,1)	(468,1)	(1,1)	(-10,1)	(4,1)	(10,1)	(1,0)	(1,0)	(1,0)	(1,0)	(1,0)	(1,0)	(1,0)	(1,0)	
L1D -430>	(412,2)	(436,1)	(122,1)	(4,1)	(362,1)	(398,1)	(0,2)	(2,1)	(102,1)	(-42,1)	(-9,1)	(55,1)	(1,3)	(63,1)	(1,0)	(1,0)	
L1D -429>	(1,3)	(384,1)	(0,4)	(2,1)	(-10,1)	(5,1)	(71,2)	(7,1)	(1,0)	(1,0)	(1,0)	(1,0)	(1,0)	(1,0)	(1,0)	(1,0)	
L1D -428>	(1,7)	(398,1)	(-1,15)	(0,2)	(100,1)	(-42,1)	(75,1)	(400,2)	(61,1)	(410,1)	(1,0)	(1,0)	(1,0)	(1,0)	(1,0)	(1,0)	
L1D -427>	(28,88)	(1,24)	(-1,22)	(2,1)	(0,3)	(402,2)	(394,1)	(18,0)	(1,0)	(1,0)	(1,0)	(1,0)	(1,0)	(1,0)	(1,0)	(1,0)	
L1D -426>	(-1,103)	(0,5)	(1,86)	(27,22)	(414,6)	(40,8)	(4,4)	(34,1)	(70,1)	(120,1)	(404,1)	(-42,1)	(2,1)	(356,0)	(53,0)	(348,0)	
L1D -425>	(-1,85)	(362,1)	(14,1)	(1,3)	(2,1)	(1,0)	(1,0)	(1,0)	(1,0)	(1,0)	(1,0)	(1,0)	(1,0)	(1,0)	(1,0)	(1,0)	
L1D -424>	(0,8)	(1,7)	(-1,7)	(406,2)	(-56,1)	(-20,1)	(412,2)	(5,1)	(404,2)	(103,1)	(71,1)	(4,1)	(1,0)	(1,0)	(1,0)	(1,0)	
L1D -423>	(1,10)	(5,7)	(-1,13)	(215,35)	(2,4)	(-10,3)	(213,1)	(4,1)	(0,2)	(376,1)	(217,1)	(1,0)	(1,0)	(1,0)	(1,0)	(1,0)	
L1D -422>	(1,11)	(-1,46)	(2,44)	(215,67)	(213,18)	(0,1)	(214,108)	(408,1)	(212,2)	(222,2)	(348,1)	(216,1)	(14,1)	(389,1)	(91,1)	(352,1)	
L1D -421>	(-1,108)	(214,15)	(213,4)	(222,1)	(5,2)	(0,1)	(384,1)	(1,0)	(1,0)	(1,0)	(1,0)	(1,0)	(1,0)	(1,0)	(1,0)	(1,0)	
L1D -420>	(6,3)	(215,1)	(0,1)	(83,1)	(364,1)	(34,1)	(69,2)	(1,7)	(214,1)	(146,1)	(5,1)	(396,1)	(28,1)	(2,1)	(420,1)	(1,0)	
L1D -419>	(1,5)	(11,3)	(386,1)	(16,2)	(175,1)	(5,1)	(378,1)	(2,1)	(76,1)	(0,4)	(-26,1)	(410,1)	(350,1)	(213,1)	(-1,1)	(-43,1)	
L1D -418>	(3,68)	(-43,0)	(-44,0)	(418,1)	(410,0)	(0,2)	(406,0)	(400,0)	(336,0)	(422,0)	(419,0)	(1,0)	(1,0)	(1,0)	(1,0)	(1,0)	
L1D -417>	(31,1)	(-10,123)	(-1,2)	(6,0)	(1,0)	(-44,0)	(1,0)	(1,0)	(1,0)	(1,0)	(1,0)	(1,0)	(1,0)	(1,0)	(1,0)	(1,0)	
L1D -416>	(1,25)	(0,17)	(409,1)	(37,1)	(61,1)	(414,31)	(107,1)	(412,3)	(5,1)	(404,1)	(410,1)	(416,14)	(415,2)	(-1,5)	(17,1)	(110,1)	
L1D -415>	(1,123)	(414,8)	(6,1)	(0,4)	(14,1)	(415,2)	(-3,2)	(-2,0)	(5,0)	(-1,0)	(416,0)	(1,0)	(1,0)	(1,0)	(1,0)	(1,0)	
L1D -414>	(1,24)	(-18,0)	(0,44)	(-1,1)	(414,80)	(-45,0)	(-23,0)	(415,10)	(30,0)	(206,0)	(-2,4)	(164,0)	(413,0)	(40,0)	(225,0)	(126,0)	
L1D -413>	(90,0)	(0,10)	(11,2)	(2,0)	(1,13)	(32,0)	(22,0)	(108,0)	(212,0)	(-1,10)	(-41,0)	(65,0)	(-27,0)	(413,66)	(412,2)	(414,20)	
L1D -412>	(413,39)	(0,60)	(412,81)	(1,12)	(394,1)	(47,1)	(418,1)	(16,0)	(416,0)	(17,1)	(414,2)	(104,0)	(-1,6)	(5,0)	(-2,0)	(1,0)	
L1D -411>	(0,64)	(-7,2)	(411,1)	(-1,0)	(412,0)	(1,0)	(1,0)	(1,0)	(1,0)	(1,0)	(1,0)	(1,0)	(1,0)	(1,0)	(1,0)	(1,0)	
L1D -410>	(-2,3)	(172,1)	(411,2)	(410,6)	(0,5)	(24,1)	(53,2)	(414,1)	(92,1)	(1,3)	(402,1)	(424,1)	(377,2)	(-1,1)	(3,2)	(190,1)	
L1D -409>	(0,2)	(1,5)	(409,3)	(2,2)	(-10,1)	(5,4)	(415,1)	(-1,1)	(410,2)	(-20,1)	(414,1)	(403,1)	(1,0)	(1,0)	(1,0)	(1,0)	
L1D -408>	(1,5)	(-54,1)	(0,5)	(396,2)	(3,1)	(4,1)	(24,1)	(-1,1)	(409,2)	(237,1)	(408,2)	(216,1)	(390,2)	(412,1)	(394,1)	(420,1)	
L1D -407>	(0,5)	(387,1)	(1,4)	(407,2)	(5,3)	(408,1)	(62,1)	(-10,1)	(2,1)	(1,0)	(1,0)	(1,0)	(1,0)	(1,0)	(1,0)	(1,0)	
L1D -406>	(394,5)	(172,1)	(409,1)	(2,1)	(406,3)	(1,7)	(388,1)	(0,10)	(352,1)	(407,1)	(92,1)	(400,2)	(5,1)	(1,0)	(1,0)	(1,0)	
L1D -405>	(165,7)	(5,1)	(1,7)	(91,2)	(365,2)	(172,1)	(54,1)	(384,1)	(56,1)	(364,1)	(2,2)	(405,2)	(345,4)	(406,1)	(385,1)	(368,1)	
L1D -404>	(1,6)	(3,1)	(314,1)	(2,1)	(4,1)	(0,8)	(392,3)	(404,3)	(364,1)	(403,2)	(24,1)	(405,2)	(410,1)	(386,2)	(398,1)	(1,0)	
L1D -403>	(336,1)	(354,1)	(404,2)	(0,2)	(5,3)	(1,3)	(405,1)	(403,6)	(402,1)	(366,1)	(-1,2)	(61,1)	(1,0)	(1,0)	(1,0)	(1,0)	
L1D -402>	(408,1)	(0,7)	(400,1)	(2,1)	(388,62)	(403,10)	(390,6)	(26,1)	(402,6)	(404,1)	(1,1)	(-2,1)	(126,1)	(-12,1)	(1,0)	(1,0)	
L1D -401>	(1,4)	(394,1)	(395,3)	(0,3)	(402,7)	(5,3)	(-10,1)	(382,2)	(401,5)	(7,1)	(128,1)	(407,1)	(14,1)	(1,0)	(1,0)	(1,0)	
L1D -400>	(0,9)	(134,2)	(1,2)	(388,2)	(3,1)	(399,1)	(208,1)	(58,1)	(392,1)	(18,1)	(400,5)	(401,7)	(5,3)	(382,2)	(4,1)	(176,1)	
L1D -399>	(365,2)	(0,3)	(399,4)	(330,1)	(-14,1)	(1,4)	(5,2)	(-10,1)	(400,1)	(404,1)	(-1,1)	(62,1)	(1,0)	(1,0)	(1,0)	(1,0)	
L1D -398>	(2,3)	(0,7)	(-42,19)	(1,6)	(398,5)	(386,2)	(-54,1)	(399,3)	(404,2)	(370,1)	(395,4)	(-38,5)	(24,1)	(414,1)	(408,1)	(6,1)	
L1D -397>	(397,4)	(5,3)	(2,1)	(3,1)	(0,1)	(8,1)	(9,1)	(398,1)	(282,1)	(1,0)	(1,0)	(1,0)	(1,0)	(1,0)	(1,0)	(1,0)	
L1D -396>	(0,6)	(148,2)	(388,2)	(2,2)	(-6,1)	(1,5)	(5,2)	(396,4)	(386,1)	(-2,1)	(397,1)	(1,0)	(1,0)	(1,0)	(1,0)	(1,0)	
L1D -395>	(397,39)	(2,4)	(395,6)	(3,1)	(9,7)	(412,1)	(-1,1)	(1,1)	(24,1)	(128,1)	(1,0)	(1,0)	(1,0)	(1,0)	(1,0)	(1,0)	
L1D -394>	(1,5)	(2,1)	(5,1)	(0,7)	(-1,1)	(458,1)	(395,5)	(76,1)	(43,2)	(37,1)	(388,1)	(52,1)	(62,1)	(382,2)	(376,1)	(1,0)	
L1D -393>	(0,3)	(8,73)	(21,0)	(1,1)	(2,0)	(394,2)	(126,0)	(-20,0)	(393,0)	(56,0)	(3,0)	(-7,0)	(-1,0)	(1,0)	(1,0)	(1,0)	
L1D -392>	(70,57)	(0,3)	(348,1)	(1,7)	(394,1)	(384,1)	(370,1)	(393,5)	(-30,1)	(5,1)	(-94,1)	(392,1)	(6,1)	(-1,3)	(410,1)	(1,0)	
L1D -391>	(20,83)	(414,0)	(-4,0)	(-1,0)	(1,0)	(1,0)	(1,0)	(1,0)	(1,0)	(1,0)	(1,0)	(1,0)	(1,0)	(1,0)	(1,0)	(1,0)	
L1D -390>	(26,127)	(0,8)	(2,2)	(390,5)	(1,5)	(391,3)	(3,1)	(392,1)	(5,2)	(-1,3)	(-108,1)	(74,1)	(16,1)	(-2,1)	(1,0)	(1,0)	
L1D -389>	(-1,5)	(0,2)	(1,1)	(390,1)	(14,1)	(306,2)	(389,5)	(396,1)	(437,1)	(395,1)	(388,1)	(385,1)	(1,0)	(1,0)	(1,0)	(1,0)	
L1D -388>	(148,5)	(267,51)	(0,5)	(2,2)	(388,4)	(-1,2)	(376,1)	(-44,1)	(13,2)	(374,1)	(362,1)	(1,1)	(184,1)	(120,1)	(136,1)	(1,0)	
L1D -387>	(114,23)	(2,6)	(-1,3)	(1,3)	(406,1)	(248,1)	(5,1)	(8,1)	(388,1)	(387,3)	(132,1)	(0,3)	(318,1)	(276,1)	(-30,1)	(1,0)	
L1D -386>	(6,1)	(0,14)	(386,106)	(-31,4)	(106,0)	(1,0)	(1,0)	(1,0)	(1,0)	(1,0)	(1,0)	(1,0)	(1,0)	(1,0)	(1,0)	(1,0)	
L1D -385>	(1,4)	(385,8)	(386,3)	(0,5)	(15,5)	(-12,4)	(6,3)	(73,1)	(-3,1)	(12,9)	(345,2)	(2,1)	(390,1)	(108,1)	(1,0)	(1,0)	
L1D -384>	(0,6)	(1,13)	(372,5)	(-1,4)	(384,3)	(221,2)	(-48,1)	(351,1)	(192,1)	(356,1)	(385,2)	(258,1)	(1,0)	(1,0)	(1,0)	(1,0)	
L1D -383>	(384,3)	(1,3)	(0,1)	(-1,14)	(155,1)	(128,1)	(397,1)	(2,1)	(383,2)	(414,1)	(110,1)	(14,1)	(1,0)	(1,0)	(1,0)	(1,0)	
L1D -382>	(0,5)	(30,3)	(382,3)	(2,1)	(-1,1)	(379,1)	(106,1)	(383,2)	(73,1)	(1,3)	(4,1)	(-28,1)	(26,2)	(414,1)	(1,0)	(1,0)	
L1D -381>	(114,103)	(152,7)	(0,4)	(82,1)	(2,5)	(126,1)	(15,1)	(58,1)	(381,2)	(42,1)	(-8,1)	(420,1)	(-1,3)	(1,2)	(-50,1)	(-7,1)	
L1D -380>	(381,2)	(294,2)	(2,1)	(1,5)	(6,2)	(24,1)	(5,2)	(-1,1)	(414,1)	(3,1)	(4,1)	(-24,1)	(0,2)	(-4,1)	(402,1)	(472,1)	
L1D -379>	(1,3)	(378,1)	(379,2)	(5,2)	(410,1)	(2,1)	(-1,4)	(6,1)	(0,5)	(99,1)	(1,0)	(1,0)	(1,0)	(1,0)	(1,0)	(1,0)	
L1D -378>	(0,9)	(378,4)	(2,1)	(79,2)	(379,1)	(1,5)	(412,1)	(266,1)	(-60,1)	(170,1)	(400,1)	(4,1)	(1,0)	(1,0)	(1,0)	(1,0)	
L1D -377>	(341,4)	(166,2)	(1,5)	(0,2)	(126,3)	(376,1)	(4,2)	(377,1)	(412,1)	(110,1)	(6,1)	(-1,2)	(2,1)	(378,1)	(1,0)	(1,0)	
L1D -376>	(1,2)	(4,1)	(74,1)	(3,4)	(102,1)	(-1,1)	(376,1)	(0,1)	(377,1)	(-6,1)	(124,1)	(1,0)	(1,0)	(1,0)	(1,0)	(1,0)	
L1D -375>	(70,1)	(-1,2)	(376,1)	(1,3)	(374,1)	(402,1)	(-7,1)	(124,2)	(0,3)	(-116,1)	(-2,2)	(34,1)	(5,2)	(6,1)	(4,1)	(1,0)	
L1D -374>	(85,1)	(2,1)	(173,1)	(374,4)	(0,6)	(1,2)	(32,1)	(6,2)	(264,1)	(107,2)	(76,1)	(352,1)	(148,1)	(5,1)	(18,1)	(98,1)	
L1D -373>	(2,3)	(0,3)	(74,3)	(1,2)	(4,1)	(28,1)	(453,1)	(263,1)	(278,1)	(5,2)	(454,1)	(373,1)	(374,1)	(340,1)	(-1,2)	(274,1)	
L1D -372>	(-21,84)	(53,0)	(213,0)	(372,0)	(1,0)	(1,0)	(1,0)	(1,0)	(1,0)	(1,0)	(1,0)	(1,0)	(1,0)	(1,0)	(1,0)	(1,0)	
L1D -371>	(1,6)	(72,10)	(-20,6)	(2,1)	(214,2)	(-24,4)	(372,1)	(-1,1)	(371,2)	(102,1)	(56,1)	(10,1)	(8,1)	(-15,1)	(121,1)	(276,1)	
L1D -370>	(234,34)	(140,11)	(184,27)	(-1,3)	(-137,2)	(2,3)	(370,2)	(4,1)	(0,3)	(24,1)	(180,1)	(344,1)	(-9,2)	(1,3)	(126,1)	(371,1)	
L1D -369>	(1,3)	(4,3)	(0,1)	(365,1)	(3,2)	(-1,7)	(70,3)	(-137,1)	(369,4)	(246,1)	(224,1)	(2,2)	(400,1)	(-7,2)	(370,1)	(1,0)	
L1D -368>	(-4,9)	(366,12)	(369,7)	(5,1)	(368,1)	(0,2)	(356,1)	(30,1)	(1,2)	(1,0)	(1,0)	(1,0)	(1,0)	(1,0)	(1,0)	(1,0)	
L1D -367>	(1,4)	(367,2)	(-38,1)	(92,1)	(2,3)	(414,1)	(125,1)	(412,1)	(368,2)	(69,1)	(-68,1)	(0,1)	(402,1)	(1,0)	(1,0)	(1,0)	
L1D -366>	(-72,1)	(366,3)	(1,1)	(286,1)	(18,1)	(0,3)	(365,1)	(5,1)	(48,1)	(1,0)	(1,0)	(1,0)	(1,0)	(1,0)	(1,0)	(1,0)	
L1D -365>	(-1,1)	(60,35)	(5,2)	(1,3)	(0,5)	(270,1)	(2,1)	(66,1)	(108,1)	(45,1)	(365,2)	(106,1)	(80,1)	(28,1)	(1,0)	(1,0)	
L1D -364>	(268,121)	(44,1)	(-1,0)	(-26,2)	(4,0)	(1,0)	(1,0)	(1,0)	(1,0)	(1,0)	(1,0)	(1,0)	(1,0)	(1,0)	(1,0)	(1,0)	
L1D -363>	(403,4)	(1,6)	(175,2)	(83,2)	(0,3)	(345,9)	(-1,12)	(72,1)	(18,1)	(363,3)	(88,1)	(370,1)	(352,1)	(48,1)	(-2,1)	(56,1)	
L1D -362>	(360,49)	(1,6)	(-2,1)	(0,4)	(52,1)	(120,1)	(-20,1)	(362,4)	(363,2)	(208,1)	(5,2)	(78,2)	(71,1)	(386,1)	(86,1)	(-28,1)	
L1D -361>	(1,7)	(82,2)	(362,2)	(75,2)	(167,4)	(103,3)	(263,1)	(95,2)	(265,1)	(24,2)	(62,2)	(345,4)	(4,2)	(261,1)	(193,1)	(-58,1)	
L1D -360>	(298,112)	(296,5)	(148,1)	(5,1)	(-1,6)	(0,6)	(363,1)	(142,2)	(414,0)	(1,2)	(360,1)	(251,0)	(2,0)	(40,1)	(400,0)	(12,0)	
L1D -359>	(60,76)	(0,1)	(1,2)	(-1,11)	(117,1)	(359,2)	(44,0)	(1,0)	(1,0)	(1,0)	(1,0)	(1,0)	(1,0)	(1,0)	(1,0)	(1,0)	
L1D -358>	(97,0)	(0,0)	(356,119)	(-137,0)	(2,0)	(358,0)	(316,0)	(60,0)	(4,0)	(359,0)	(1,0)	(1,0)	(1,0)	(1,0)	(1,0)	(1,0)	
L1D -357>	(1,3)	(-1,1)	(357,2)	(358,2)	(8,1)	(246,1)	(5,3)	(3,2)	(-2,1)	(356,1)	(6,2)	(414,1)	(18,1)	(0,1)	(370,1)	(76,1)	
L1D -356>	(-31,9)	(262,21)	(70,14)	(40,1)	(34,1)	(-1,1)	(0,6)	(2,2)	(356,4)	(91,1)	(-6,1)	(1,3)	(357,3)	(-2,1)	(1,0)	(1,0)	
L1D -355>	(56,0)	(6,0)	(215,83)	(4,0)	(365,18)	(-124,0)	(0,0)	(355,0)	(1,0)	(1,0)	(1,0)	(1,0)	(1,0)	(1,0)	(1,0)	(1,0)	
L1D -354>	(0,0)	(-30,0)	(380,0)	(303,0)	(268,0)	(240,0)	(-42,0)	(154,0)	(396,1)	(402,0)	(292,0)	(400,0)	(388,120)	(398,1)	(378,2)	(337,0)	
L1D -353>	(355,1)	(0,3)	(6,4)	(1,4)	(3,2)	(353,2)	(354,2)	(2,3)	(414,1)	(119,1)	(-1,1)	(1,0)	(1,0)	(1,0)	(1,0)	(1,0)	
L1D -352>	(142,1)	(220,94)	(318,0)	(-30,3)	(88,1)	(30,0)	(242,0)	(254,0)	(1,0)	(38,0)	(260,0)	(-1,0)	(264,0)	(124,1)	(2,0)	(218,0)	
L1D -351>	(317,2)	(213,2)	(95,4)	(265,4)	(69,2)	(1,5)	(77,1)	(361,7)	(3,1)	(24,1)	(99,1)	(2,2)	(0,4)	(351,2)	(414,1)	(-1,1)	
L1D -350>	(1,83)	(126,1)	(30,0)	(20,1)	(-2,0)	(252,0)	(350,0)	(1,0)	(1,0)	(1,0)	(1,0)	(1,0)	(1,0)	(1,0)	(1,0)	(1,0)	
L1D -349>	(181,4)	(1,5)	(0,2)	(349,3)	(-7,1)	(-1,11)	(6,1)	(-2,1)	(376,1)	(336,1)	(56,1)	(-70,1)	(64,2)	(350,1)	(348,1)	(-137,1)	
L1D -348>	(212,4)	(4,26)	(1,6)	(12,2)	(0,6)	(28,31)	(258,5)	(346,2)	(345,1)	(347,38)	(256,12)	(172,1)	(348,2)	(351,1)	(124,4)	(184,1)	
L1D -347>	(83,4)	(3,20)	(174,19)	(347,1)	(2,68)	(4,9)	(346,12)	(176,3)	(348,25)	(-1,14)	(172,25)	(345,1)	(344,65)	(67,1)	(313,1)	(175,2)	
L1D -346>	(254,40)	(345,106)	(342,7)	(3,17)	(0,1)	(234,0)	(351,0)	(174,24)	(343,11)	(172,1)	(347,1)	(341,1)	(4,1)	(344,0)	(1,12)	(1,0)	
L1D -345>	(344,10)	(342,28)	(169,9)	(173,17)	(-1,6)	(345,127)	(348,21)	(346,64)	(1,4)	(171,4)	(174,3)	(2,9)	(347,5)	(301,1)	(172,36)	(3,24)	
L1D -344>	(341,3)	(171,46)	(172,35)	(169,7)	(168,4)	(174,15)	(-1,12)	(2,2)	(214,3)	(1,5)	(4,12)	(170,3)	(346,2)	(173,42)	(347,11)	(343,64)	
L1D -343>	(345,33)	(346,8)	(1,47)	(171,30)	(-3,14)	(342,62)	(169,1)	(-1,84)	(-2,9)	(343,1)	(0,0)	(344,0)	(2,1)	(172,33)	(338,3)	(173,2)	
L1D -342>	(343,3)	(170,39)	(171,5)	(-1,26)	(0,0)	(344,0)	(-3,1)	(-4,72)	(168,0)	(350,0)	(346,20)	(169,0)	(173,0)	(172,0)	(351,0)	(345,15)	
L1D -341>	(1,0)	(5,0)	(172,65)	(342,3)	(346,4)	(0,9)	(170,6)	(-1,69)	(341,0)	(-2,11)	(4,12)	(171,42)	(169,7)	(343,8)	(173,0)	(168,2)	
L1D -340>	(345,1)	(343,12)	(171,86)	(168,20)	(4,0)	(170,0)	(169,18)	(-4,5)	(1,0)	(341,0)	(-1,15)	(2,0)	(344,6)	(3,9)	(172,20)	(340,0)	
L1D -339>	(397,49)	(170,13)	(189,2)	(1,7)	(310,2)	(399,6)	(3,4)	(0,3)	(-3,7)	(5,1)	(79,1)	(56,1)	(112,1)	(184,1)	(169,4)	(-1,2)	
L1D -338>	(240,3)	(306,4)	(24,50)	(252,3)	(-14,100)	(16,2)	(-1,5)	(26,1)	(-12,6)	(173,3)	(1,19)	(316,25)	(304,50)	(78,41)	(343,12)	(-3,25)	
L1D -337>	(6,1)	(114,58)	(-4,27)	(117,35)	(365,0)	(-5,0)	(-1,73)	(1,1)	(172,20)	(337,0)	(104,1)	(-2,1)	(24,0)	(248,0)	(167,0)	(3,0)	
L1D -336>	(212,115)	(112,0)	(318,0)	(-6,0)	(42,0)	(354,0)	(154,0)	(72,0)	(254,0)	(192,0)	(228,0)	(200,0)	(2,0)	(0,0)	(240,0)	(1,0)	
L1D -335>	(1,2)	(-2,18)	(172,89)	(-1,93)	(5,2)	(3,3)	(335,2)	(24,1)	(18,1)	(2,1)	(0,2)	(132,1)	(258,1)	(-172,9)	(6,2)	(246,1)	
L1D -334>	(66,3)	(1,4)	(316,13)	(4,4)	(14,5)	(220,2)	(335,2)	(0,5)	(-5,1)	(-18,1)	(414,1)	(246,1)	(17,1)	(1,0)	(1,0)	(1,0)	
L1D -333>	(1,3)	(91,2)	(6,6)	(333,1)	(-1,1)	(3,3)	(186,1)	(0,4)	(414,1)	(114,1)	(334,4)	(146,1)	(-64,1)	(4,1)	(234,1)	(387,1)	
L1D -332>	(18,114)	(334,115)	(220,1)	(98,3)	(63,0)	(214,0)	(256,0)	(222,0)	(2,0)	(1,0)	(1,0)	(1,0)	(1,0)	(1,0)	(1,0)	(1,0)	
L1D -331>	(1,4)	(3,3)	(14,1)	(2,2)	(18,1)	(0,4)	(6,1)	(331,1)	(4,1)	(-1,18)	(144,1)	(-9,1)	(386,2)	(1,0)	(1,0)	(1,0)	
L1D -330>	(212,1)	(4,1)	(228,2)	(116,1)	(-1,6)	(338,19)	(0,2)	(37,2)	(333,0)	(108,1)	(300,2)	(-22,89)	(232,10)	(8,2)	(28,0)	(423,0)	
L1D -329>	(3,67)	(10,0)	(-2,0)	(6,0)	(-1,6)	(0,2)	(5,4)	(64,0)	(342,0)	(-126,0)	(24,0)	(1,1)	(1,0)	(1,0)	(1,0)	(1,0)	
L1D -328>	(22,72)	(114,0)	(-102,0)	(15,87)	(3,0)	(328,0)	(318,0)	(66,0)	(172,0)	(308,0)	(0,0)	(216,69)	(116,11)	(-32,0)	(1,0)	(1,0)	
L1D -327>	(24,1)	(327,76)	(-9,1)	(328,1)	(-1,2)	(156,1)	(0,9)	(2,1)	(331,1)	(90,1)	(1,2)	(56,1)	(89,1)	(1,0)	(1,0)	(1,0)	
L1D -326>	(1,83)	(54,1)	(318,1)	(218,0)	(-3,3)	(96,6)	(140,0)	(146,0)	(1,0)	(1,0)	(1,0)	(1,0)	(1,0)	(1,0)	(1,0)	(1,0)	
L1D -325>	(1,95)	(0,2)	(6,1)	(3,0)	(116,0)	(4,0)	(1,0)	(1,0)	(1,0)	(1,0)	(1,0)	(1,0)	(1,0)	(1,0)	(1,0)	(1,0)	
L1D -324>	(172,0)	(52,0)	(1,14)	(350,0)	(238,79)	(20,1)	(4,0)	(2,0)	(1,0)	(1,0)	(1,0)	(1,0)	(1,0)	(1,0)	(1,0)	(1,0)	
L1D -323>	(2,81)	(3,1)	(356,0)	(32,0)	(0,0)	(1,0)	(1,0)	(1,0)	(1,0)	(1,0)	(1,0)	(1,0)	(1,0)	(1,0)	(1,0)	(1,0)	
L1D -322>	(280,4)	(74,77)	(314,69)	(197,78)	(20,1)	(302,69)	(82,0)	(28,0)	(2,0)	(-2,0)	(232,1)	(320,1)	(96,1)	(-30,0)	(42,0)	(0,0)	
L1D -321>	(215,19)	(2,3)	(-1,1)	(1,5)	(98,1)	(336,1)	(0,9)	(18,1)	(321,1)	(24,1)	(3,2)	(6,3)	(-5,1)	(-4,1)	(26,1)	(146,1)	
L1D -320>	(20,1)	(-44,1)	(-28,1)	(214,2)	(-10,1)	(-14,6)	(-30,1)	(258,0)	(278,4)	(314,1)	(236,123)	(102,10)	(78,3)	(-16,0)	(90,6)	(52,4)	
L1D -319>	(22,1)	(167,5)	(1,4)	(3,3)	(400,1)	(0,9)	(361,16)	(265,92)	(317,3)	(24,2)	(99,1)	(-2,1)	(-60,1)	(56,2)	(345,1)	(296,1)	
L1D -318>	(296,5)	(1,0)	(172,0)	(294,0)	(254,5)	(164,1)	(0,0)	(104,1)	(84,64)	(94,1)	(-28,14)	(352,1)	(199,0)	(4,0)	(22,0)	(201,0)	
L1D -317>	(1,5)	(2,1)	(265,16)	(345,32)	(6,3)	(4,1)	(368,1)	(0,10)	(292,1)	(-1,1)	(146,2)	(317,2)	(414,1)	(5,1)	(1,0)	(1,0)	
L1D -316>	(106,65)	(6,0)	(30,2)	(0,0)	(244,0)	(100,0)	(36,0)	(4,0)	(314,0)	(56,0)	(358,0)	(20,38)	(122,1)	(330,0)	(1,1)	(252,3)	
L1D -315>	(1,6)	(0,15)	(3,4)	(-24,1)	(4,2)	(-1,4)	(26,1)	(6,3)	(2,1)	(-20,1)	(222,1)	(394,1)	(1,0)	(1,0)	(1,0)	(1,0)	
L1D -314>	(272,121)	(206,2)	(298,108)	(98,3)	(270,2)	(28,1)	(106,4)	(198,3)	(20,1)	(274,3)	(130,1)	(24,1)	(0,1)	(2,1)	(-24,2)	(-6,2)	
L1D -313>	(313,65)	(26,3)	(241,1)	(0,10)	(1,2)	(-1,3)	(-20,1)	(56,2)	(21,7)	(24,4)	(6,3)	(310,1)	(-12,1)	(-4,1)	(437,1)	(200,1)	
L1D -312>	(305,116)	(313,0)	(140,1)	(246,0)	(94,0)	(84,0)	(272,0)	(350,14)	(330,1)	(1,0)	(1,0)	(1,0)	(1,0)	(1,0)	(1,0)	(1,0)	
L1D -311>	(322,1)	(-1,1)	(5,1)	(0,8)	(1,1)	(24,2)	(6,1)	(311,3)	(312,1)	(405,1)	(56,1)	(1,0)	(1,0)	(1,0)	(1,0)	(1,0)	
L1D -310>	(148,17)	(354,23)	(336,19)	(134,13)	(244,8)	(0,18)	(256,7)	(258,19)	(174,2)	(228,2)	(308,45)	(4,1)	(2,1)	(208,119)	(108,94)	(1,2)	
L1D -309>	(1,5)	(6,11)	(5,1)	(0,16)	(206,1)	(309,3)	(-118,1)	(90,1)	(-2,1)	(4,1)	(56,2)	(1,0)	(1,0)	(1,0)	(1,0)	(1,0)	
L1D -308>	(260,116)	(122,0)	(258,2)	(14,0)	(222,1)	(86,0)	(108,0)	(-14,0)	(314,0)	(2,0)	(244,5)	(332,0)	(270,87)	(238,0)	(82,4)	(1,0)	
L1D -307>	(0,7)	(1,3)	(6,6)	(4,2)	(311,1)	(26,1)	(1,0)	(1,0)	(1,0)	(1,0)	(1,0)	(1,0)	(1,0)	(1,0)	(1,0)	(1,0)	
L1D -306>	(316,3)	(0,125)	(304,0)	(8,9)	(52,6)	(272,3)	(306,23)	(240,0)	(4,0)	(1,0)	(1,0)	(1,0)	(1,0)	(1,0)	(1,0)	(1,0)	
L1D -305>	(408,0)	(20,0)	(12,85)	(6,1)	(146,0)	(345,1)	(321,2)	(13,1)	(26,0)	(-9,3)	(305,0)	(0,0)	(-1,0)	(452,0)	(1,1)	(1,0)	
L1D -304>	(28,19)	(74,6)	(19,1)	(0,4)	(20,5)	(116,2)	(-40,1)	(6,1)	(112,1)	(76,2)	(354,37)	(-22,33)	(208,60)	(258,114)	(307,1)	(3,2)	
L1D -303>	(68,84)	(-2,1)	(140,1)	(4,1)	(14,1)	(260,7)	(154,1)	(242,0)	(1,0)	(1,0)	(1,0)	(1,0)	(1,0)	(1,0)	(1,0)	(1,0)	
L1D -302>	(214,1)	(210,1)	(104,0)	(80,0)	(4,0)	(-1,0)	(92,0)	(188,2)	(158,6)	(96,120)	(0,1)	(2,0)	(19,0)	(144,0)	(1,1)	(1,0)	
L1D -301>	(5,3)	(6,10)	(0,9)	(2,1)	(1,2)	(32,1)	(78,1)	(-118,1)	(-124,1)	(301,2)	(347,2)	(298,1)	(260,1)	(146,1)	(-1,2)	(1,0)	
L1D -300>	(66,40)	(5,2)	(-22,41)	(1,2)	(115,5)	(338,87)	(104,3)	(-8,2)	(192,2)	(6,3)	(0,8)	(2,3)	(242,111)	(232,2)	(305,6)	(118,1)	
L1D -299>	(288,1)	(321,69)	(1,1)	(14,4)	(2,5)	(4,4)	(-1,5)	(0,10)	(488,1)	(26,1)	(6,2)	(376,1)	(-20,3)	(50,1)	(316,1)	(301,1)	
L1D -298>	(254,8)	(1,0)	(314,2)	(94,1)	(299,0)	(40,0)	(-22,0)	(296,0)	(0,0)	(-12,0)	(318,0)	(301,0)	(-1,0)	(250,15)	(188,114)	(4,0)	
L1D -297>	(6,11)	(0,15)	(26,5)	(1,1)	(24,11)	(19,1)	(-1,1)	(299,2)	(297,1)	(-4,1)	(301,1)	(298,1)	(1,0)	(1,0)	(1,0)	(1,0)	
L1D -296>	(338,12)	(42,7)	(294,9)	(26,18)	(301,1)	(267,99)	(200,40)	(0,9)	(284,1)	(256,35)	(-12,1)	(250,9)	(-22,109)	(-2,1)	(2,1)	(34,1)	
L1D -295>	(0,13)	(14,3)	(6,11)	(1,6)	(2,1)	(-20,4)	(56,1)	(-1,1)	(297,2)	(19,3)	(299,1)	(295,1)	(26,1)	(1,0)	(1,0)	(1,0)	
L1D -294>	(2,0)	(0,2)	(166,107)	(174,0)	(250,94)	(20,0)	(392,0)	(364,2)	(44,2)	(298,0)	(228,0)	(70,4)	(268,0)	(-20,0)	(72,0)	(32,18)	
L1D -293>	(295,1)	(6,2)	(319,112)	(345,35)	(317,38)	(-20,46)	(339,1)	(1,0)	(-12,7)	(0,2)	(24,0)	(26,0)	(5,0)	(19,0)	(-1,0)	(293,1)	
L1D -292>	(260,0)	(-13,69)	(-21,1)	(154,0)	(8,1)	(380,1)	(6,0)	(212,0)	(300,0)	(272,0)	(316,0)	(122,0)	(10,1)	(294,1)	(318,56)	(40,1)	
L1D -291>	(5,97)	(291,4)	(0,9)	(1,5)	(309,1)	(-4,7)	(-20,6)	(24,1)	(-1,13)	(21,5)	(2,3)	(62,1)	(334,1)	(6,2)	(20,2)	(272,1)	
L1D -290>	(30,17)	(414,0)	(42,88)	(302,1)	(2,0)	(212,7)	(18,1)	(100,0)	(244,1)	(116,125)	(122,0)	(10,16)	(40,5)	(264,0)	(0,0)	(224,0)	
L1D -289>	(1,6)	(24,3)	(-6,1)	(6,10)	(26,2)	(0,14)	(19,3)	(-1,3)	(-20,7)	(289,5)	(45,1)	(291,1)	(2,2)	(4,2)	(41,1)	(5,1)	
L1D -288>	(308,112)	(-28,7)	(2,2)	(1,5)	(136,84)	(0,16)	(10,100)	(291,4)	(4,4)	(20,5)	(-12,2)	(-1,5)	(289,1)	(122,1)	(18,6)	(232,2)	
L1D -287>	(289,2)	(1,2)	(-1,9)	(291,3)	(2,1)	(250,1)	(24,3)	(327,1)	(6,3)	(26,5)	(0,8)	(17,2)	(356,1)	(266,1)	(7,1)	(350,1)	
L1D -286>	(204,0)	(308,93)	(320,0)	(13,2)	(270,0)	(186,0)	(36,0)	(20,0)	(38,0)	(284,2)	(78,0)	(7,0)	(-40,0)	(0,0)	(100,0)	(134,0)	
L1D -285>	(6,14)	(285,1)	(24,10)	(74,1)	(2,1)	(88,1)	(279,1)	(-20,7)	(287,1)	(0,6)	(3,3)	(-5,2)	(-64,1)	(152,1)	(26,1)	(37,3)	
L1D -284>	(282,0)	(-24,0)	(294,0)	(206,0)	(114,0)	(272,0)	(112,1)	(308,0)	(66,1)	(350,0)	(268,0)	(0,0)	(40,2)	(64,79)	(212,82)	(303,1)	
L1D -283>	(212,26)	(218,10)	(186,10)	(283,1)	(102,5)	(285,0)	(72,101)	(64,9)	(0,0)	(96,10)	(6,0)	(19,0)	(272,0)	(1,0)	(1,0)	(1,0)	
L1D -282>	(-12,1)	(19,0)	(282,0)	(280,0)	(70,0)	(222,0)	(308,79)	(106,38)	(318,14)	(218,0)	(98,5)	(-50,0)	(20,0)	(-6,0)	(312,0)	(1,0)	
L1D -281>	(0,10)	(-1,2)	(24,5)	(6,11)	(281,4)	(1,2)	(29,1)	(282,2)	(276,2)	(38,1)	(-36,1)	(280,1)	(-14,1)	(-20,1)	(20,1)	(26,1)	
L1D -280>	(-10,0)	(-12,114)	(254,0)	(146,47)	(114,1)	(320,1)	(8,3)	(36,0)	(198,6)	(160,99)	(14,0)	(206,1)	(92,3)	(264,1)	(100,1)	(230,4)	
L1D -279>	(6,2)	(256,1)	(8,18)	(-20,5)	(0,11)	(1,4)	(16,3)	(24,8)	(26,6)	(-1,5)	(19,5)	(2,1)	(276,3)	(281,2)	(5,1)	(293,1)	
L1D -278>	(312,109)	(19,1)	(318,1)	(-30,1)	(360,120)	(264,0)	(304,2)	(238,1)	(236,0)	(214,0)	(212,0)	(-2,0)	(106,0)	(368,0)	(100,0)	(224,0)	
L1D -277>	(273,46)	(0,96)	(-6,3)	(277,9)	(24,0)	(-20,0)	(3,0)	(6,1)	(80,0)	(1,1)	(1,0)	(1,0)	(1,0)	(1,0)	(1,0)	(1,0)	
L1D -276>	(186,13)	(4,1)	(19,12)	(302,1)	(18,3)	(0,6)	(20,10)	(2,8)	(-6,1)	(28,2)	(260,1)	(-20,2)	(-92,39)	(49,1)	(230,94)	(204,33)	
L1D -275>	(66,1)	(277,28)	(275,0)	(90,0)	(58,2)	(212,80)	(26,0)	(0,0)	(5,0)	(1,0)	(1,0)	(1,0)	(1,0)	(1,0)	(1,0)	(1,0)	
L1D -274>	(166,3)	(-31,6)	(8,12)	(136,8)	(186,3)	(2,11)	(279,2)	(68,2)	(122,56)	(106,13)	(0,4)	(277,1)	(1,7)	(78,111)	(291,38)	(276,1)	
L1D -273>	(277,95)	(24,0)	(0,1)	(1,2)	(412,4)	(420,4)	(273,6)	(155,0)	(19,0)	(419,1)	(-6,0)	(6,2)	(263,1)	(28,0)	(275,0)	(-20,2)	
L1D -272>	(-54,123)	(303,89)	(-10,25)	(0,1)	(80,94)	(72,35)	(160,2)	(228,1)	(312,62)	(268,8)	(162,2)	(12,1)	(118,4)	(289,4)	(96,4)	(242,3)	
L1D -271>	(0,10)	(6,3)	(1,7)	(14,1)	(2,3)	(26,2)	(254,3)	(19,1)	(24,4)	(270,1)	(-1,3)	(273,3)	(271,5)	(-86,1)	(-12,1)	(268,1)	
L1D -270>	(-21,84)	(0,22)	(-16,1)	(272,0)	(20,0)	(202,2)	(348,0)	(28,0)	(226,0)	(350,0)	(204,0)	(266,0)	(170,0)	(1,0)	(1,0)	(1,0)	
L1D -269>	(3,77)	(26,5)	(271,0)	(269,1)	(-14,0)	(1,2)	(6,2)	(268,3)	(13,7)	(0,4)	(24,1)	(29,0)	(4,1)	(19,1)	(22,0)	(273,0)	
L1D -268>	(40,103)	(4,8)	(298,12)	(6,0)	(290,30)	(19,3)	(-52,2)	(172,75)	(0,2)	(-20,0)	(30,0)	(200,7)	(313,3)	(20,1)	(2,1)	(198,7)	
L1D -267>	(284,36)	(158,26)	(0,7)	(196,7)	(337,4)	(240,7)	(420,44)	(212,2)	(24,2)	(412,37)	(419,2)	(19,1)	(411,5)	(263,8)	(-20,4)	(180,87)	
L1D -266>	(4,1)	(212,7)	(269,1)	(308,1)	(198,2)	(-95,2)	(196,1)	(20,1)	(8,0)	(72,9)	(0,6)	(96,38)	(328,4)	(272,0)	(19,3)	(168,114)	
L1D -265>	(2,0)	(167,122)	(95,1)	(267,0)	(24,0)	(5,0)	(240,0)	(361,3)	(9,0)	(7,0)	(269,0)	(265,0)	(347,0)	(1,0)	(1,0)	(1,0)	
L1D -264>	(269,1)	(82,16)	(24,2)	(238,100)	(-6,26)	(312,2)	(20,82)	(266,4)	(36,3)	(1,1)	(218,8)	(-16,5)	(220,1)	(224,86)	(230,41)	(286,48)	
L1D -263>	(6,2)	(1,8)	(24,28)	(263,11)	(277,2)	(0,35)	(281,1)	(265,4)	(-20,2)	(4,1)	(-42,1)	(26,3)	(267,4)	(19,1)	(-1,3)	(3,2)	
L1D -262>	(328,110)	(236,16)	(234,16)	(18,23)	(338,91)	(115,14)	(116,57)	(166,7)	(267,18)	(54,17)	(254,1)	(268,17)	(260,22)	(370,23)	(-86,7)	(306,17)	
L1D -261>	(19,9)	(26,38)	(3,3)	(36,3)	(29,1)	(2,1)	(6,7)	(260,3)	(10,3)	(103,81)	(261,9)	(24,15)	(7,1)	(-20,6)	(0,10)	(263,6)	
L1D -260>	(-92,0)	(152,107)	(378,0)	(308,1)	(220,0)	(288,12)	(380,6)	(-12,1)	(12,2)	(168,1)	(66,4)	(106,9)	(326,5)	(-78,2)	(-54,3)	(-90,0)	
L1D -259>	(1,7)	(263,1)	(259,2)	(261,2)	(3,4)	(0,10)	(24,9)	(220,4)	(4,2)	(273,1)	(22,1)	(19,1)	(6,1)	(396,1)	(-20,2)	(258,1)	
L1D -258>	(115,123)	(242,1)	(262,119)	(-8,1)	(38,11)	(66,39)	(78,1)	(-6,0)	(112,114)	(84,0)	(252,3)	(-58,0)	(62,8)	(230,1)	(-10,3)	(216,1)	
L1D -257>	(0,65)	(97,1)	(60,116)	(98,103)	(4,1)	(14,1)	(99,4)	(24,1)	(-1,1)	(61,9)	(257,2)	(-6,0)	(22,0)	(-20,0)	(247,0)	(19,0)	
L1D -256>	(328,9)	(232,1)	(84,95)	(208,1)	(261,1)	(257,2)	(1,19)	(20,2)	(8,5)	(-14,12)	(348,1)	(4,0)	(2,1)	(255,1)	(251,13)	(312,10)	
L1D -255>	(0,61)	(84,89)	(250,8)	(-21,0)	(26,1)	(174,0)	(24,0)	(-1,0)	(6,0)	(1,1)	(255,0)	(234,1)	(10,0)	(20,0)	(218,0)	(257,0)	
L1D -254>	(352,26)	(24,4)	(20,38)	(118,1)	(272,24)	(254,5)	(-12,9)	(114,13)	(0,18)	(318,2)	(14,3)	(-52,5)	(2,32)	(-10,12)	(28,64)	(316,39)	
L1D -253>	(1,6)	(-1,12)	(253,13)	(6,7)	(0,15)	(3,1)	(-20,16)	(26,2)	(24,9)	(20,1)	(13,1)	(29,1)	(252,1)	(248,1)	(-5,1)	(2,3)	
L1D -252>	(352,0)	(386,78)	(146,0)	(20,0)	(112,4)	(0,0)	(188,14)	(308,0)	(106,0)	(260,1)	(118,0)	(267,0)	(19,0)	(154,1)	(256,0)	(6,0)	
L1D -251>	(1,67)	(255,0)	(187,0)	(7,0)	(251,0)	(3,0)	(253,0)	(0,1)	(1,0)	(1,0)	(1,0)	(1,0)	(1,0)	(1,0)	(1,0)	(1,0)	
L1D -250>	(254,36)	(244,12)	(177,2)	(2,66)	(56,20)	(-10,24)	(250,31)	(-1,3)	(186,2)	(-20,1)	(187,1)	(0,2)	(-40,19)	(78,1)	(1,1)	(84,41)	
L1D -249>	(1,12)	(6,4)	(24,23)	(0,18)	(249,9)	(19,7)	(-1,19)	(-36,6)	(240,2)	(186,1)	(-48,2)	(30,2)	(26,8)	(251,1)	(2,2)	(276,1)	
L1D -248>	(251,1)	(54,24)	(3,1)	(16,4)	(-12,36)	(-18,1)	(190,81)	(66,1)	(198,0)	(314,2)	(288,4)	(10,1)	(20,3)	(-20,2)	(-24,30)	(0,1)	
L1D -247>	(72,2)	(14,1)	(247,1)	(64,0)	(194,84)	(256,0)	(26,0)	(0,0)	(1,1)	(2,0)	(24,0)	(1,0)	(1,0)	(1,0)	(1,0)	(1,0)	
L1D -246>	(2,1)	(-76,88)	(220,58)	(246,1)	(324,1)	(19,4)	(13,1)	(-20,0)	(272,5)	(1,0)	(48,0)	(142,1)	(154,4)	(238,5)	(0,1)	(248,0)	
L1D -245>	(13,89)	(20,1)	(24,4)	(0,1)	(250,18)	(6,1)	(-6,5)	(1,0)	(-1,0)	(-20,2)	(245,1)	(14,0)	(247,0)	(26,0)	(243,0)	(-9,0)	
L1D -244>	(48,13)	(-20,1)	(4,1)	(258,2)	(245,1)	(338,1)	(8,0)	(-78,0)	(318,0)	(268,3)	(310,105)	(242,17)	(-22,1)	(108,7)	(286,0)	(254,0)	
L1D -243>	(1,1)	(3,80)	(243,1)	(245,3)	(13,7)	(24,2)	(242,2)	(0,3)	(2,3)	(4,5)	(390,0)	(36,0)	(7,1)	(-20,0)	(414,0)	(19,1)	
L1D -242>	(158,12)	(-2,2)	(20,16)	(2,100)	(194,14)	(240,1)	(19,1)	(12,1)	(6,1)	(252,2)	(-80,1)	(260,3)	(18,2)	(48,4)	(198,1)	(176,1)	
L1D -241>	(26,35)	(241,37)	(24,22)	(1,5)	(0,6)	(232,1)	(206,1)	(29,1)	(352,1)	(6,2)	(-34,1)	(-6,2)	(19,2)	(247,1)	(234,1)	(-1,3)	
L1D -240>	(10,10)	(304,0)	(28,3)	(-20,0)	(243,0)	(142,0)	(-74,2)	(-2,0)	(177,0)	(208,0)	(-10,69)	(38,3)	(116,2)	(20,0)	(190,2)	(0,0)	
L1D -239>	(239,56)	(244,6)	(1,2)	(2,4)	(29,2)	(20,1)	(26,2)	(241,4)	(-256,1)	(210,2)	(4,1)	(-20,6)	(5,3)	(212,1)	(0,12)	(19,1)	
L1D -238>	(172,1)	(8,4)	(-20,0)	(38,0)	(16,5)	(44,101)	(298,1)	(280,6)	(198,1)	(-56,1)	(-76,0)	(220,1)	(102,0)	(2,3)	(308,5)	(-70,0)	
L1D -237>	(2,3)	(4,1)	(0,23)	(7,4)	(-1,1)	(1,5)	(6,6)	(-26,1)	(24,3)	(239,4)	(222,2)	(228,1)	(237,6)	(17,1)	(29,2)	(100,1)	
L1D -236>	(278,96)	(264,22)	(224,5)	(312,2)	(8,0)	(241,0)	(-20,0)	(226,0)	(316,4)	(318,1)	(234,0)	(66,1)	(19,0)	(4,0)	(84,2)	(2,0)	
L1D -235>	(302,106)	(-20,1)	(-26,0)	(2,0)	(0,0)	(1,0)	(171,0)	(24,0)	(235,0)	(1,0)	(1,0)	(1,0)	(1,0)	(1,0)	(1,0)	(1,0)	
L1D -234>	(318,86)	(-67,1)	(22,0)	(114,34)	(220,3)	(-18,0)	(198,1)	(223,0)	(8,0)	(66,0)	(246,0)	(146,14)	(-28,29)	(244,0)	(-94,3)	(14,0)	
L1D -233>	(26,7)	(6,4)	(-1,10)	(233,24)	(24,34)	(1,12)	(0,23)	(240,3)	(-20,6)	(229,2)	(2,1)	(208,1)	(-12,1)	(227,7)	(3,4)	(235,4)	
L1D -232>	(324,25)	(126,66)	(120,12)	(-12,1)	(338,15)	(92,3)	(228,2)	(206,11)	(8,2)	(-20,2)	(-92,45)	(-88,1)	(10,1)	(233,6)	(28,87)	(20,2)	
L1D -231>	(1,3)	(0,20)	(2,3)	(231,10)	(233,1)	(-1,5)	(19,2)	(4,1)	(29,2)	(24,2)	(220,2)	(224,1)	(396,1)	(20,1)	(-26,1)	(238,1)	
L1D -230>	(302,3)	(115,87)	(214,5)	(8,70)	(194,10)	(14,54)	(-12,8)	(16,2)	(304,3)	(338,2)	(44,69)	(190,8)	(160,1)	(248,6)	(228,1)	(-84,2)	
L1D -229>	(26,6)	(1,4)	(24,4)	(-9,101)	(0,49)	(2,4)	(3,2)	(-154,1)	(6,2)	(228,0)	(231,8)	(374,7)	(229,2)	(7,5)	(-152,1)	(-20,1)	
L1D -228>	(66,3)	(208,1)	(314,2)	(162,95)	(-18,1)	(226,7)	(200,2)	(302,4)	(252,2)	(-124,2)	(96,7)	(128,6)	(-40,7)	(250,15)	(206,101)	(144,1)	
L1D -227>	(1,8)	(227,22)	(188,16)	(6,2)	(218,1)	(-1,3)	(0,19)	(-20,4)	(229,2)	(20,2)	(24,2)	(26,2)	(304,1)	(238,1)	(4,1)	(296,1)	
L1D -226>	(122,76)	(-28,0)	(254,0)	(224,0)	(162,0)	(206,0)	(62,0)	(-3,0)	(324,0)	(164,0)	(2,0)	(-134,75)	(187,0)	(272,0)	(1,1)	(1,0)	
L1D -225>	(26,3)	(37,9)	(252,2)	(225,62)	(29,2)	(0,12)	(24,30)	(1,9)	(19,5)	(-20,20)	(224,1)	(232,2)	(222,2)	(221,2)	(186,1)	(5,1)	
L1D -224>	(-102,102)	(84,1)	(78,13)	(20,0)	(-94,0)	(170,0)	(176,0)	(-96,5)	(132,0)	(134,1)	(334,0)	(-64,0)	(142,0)	(28,0)	(68,1)	(-16,1)	
L1D -223>	(223,21)	(225,6)	(1,3)	(2,5)	(0,16)	(19,6)	(-20,11)	(252,1)	(406,1)	(20,1)	(188,1)	(-1,4)	(36,1)	(189,1)	(7,3)	(147,1)	
L1D -222>	(120,9)	(290,110)	(8,1)	(332,100)	(-10,3)	(152,1)	(30,12)	(112,4)	(84,1)	(80,94)	(14,4)	(-100,95)	(256,1)	(232,5)	(244,3)	(-80,1)	
L1D -221>	(14,33)	(-46,5)	(3,2)	(2,29)	(221,23)	(5,7)	(29,4)	(6,7)	(-1,7)	(228,3)	(-77,1)	(223,6)	(322,4)	(-26,1)	(0,9)	(1,7)	
L1D -220>	(-10,41)	(162,100)	(98,12)	(78,1)	(0,1)	(48,17)	(254,4)	(84,3)	(234,19)	(-106,13)	(-14,1)	(8,8)	(264,8)	(166,63)	(266,1)	(-1,2)	
L1D -219>	(122,94)	(-1,0)	(221,3)	(224,0)	(-20,2)	(219,0)	(14,0)	(0,0)	(7,0)	(226,0)	(1,0)	(-90,0)	(1,0)	(1,0)	(1,0)	(1,0)	
L1D -218>	(232,97)	(0,1)	(20,0)	(212,3)	(66,0)	(234,3)	(114,2)	(64,1)	(1,2)	(154,1)	(60,0)	(-102,0)	(102,0)	(149,0)	(8,0)	(286,0)	
L1D -217>	(-58,2)	(1,2)	(221,1)	(26,8)	(217,2)	(262,1)	(24,3)	(212,2)	(2,1)	(19,12)	(210,1)	(224,5)	(29,4)	(0,9)	(-20,4)	(-42,1)	
L1D -216>	(212,8)	(20,9)	(223,1)	(-11,1)	(252,1)	(158,21)	(80,14)	(193,108)	(222,77)	(94,1)	(176,14)	(-24,7)	(2,16)	(302,20)	(0,3)	(115,13)	
L1D -215>	(217,2)	(201,3)	(0,31)	(405,2)	(316,2)	(-20,3)	(2,23)	(6,2)	(5,9)	(14,1)	(1,3)	(345,5)	(214,1)	(215,4)	(24,2)	(159,1)	
L1D -214>	(28,9)	(1,1)	(78,1)	(94,0)	(0,0)	(212,1)	(138,1)	(160,0)	(18,3)	(112,0)	(222,89)	(-84,0)	(115,2)	(188,2)	(208,4)	(236,1)	
L1D -213>	(95,5)	(102,9)	(0,34)	(361,4)	(211,2)	(351,4)	(319,3)	(-1,2)	(213,10)	(1,3)	(261,1)	(220,3)	(214,1)	(258,1)	(-5,1)	(215,5)	
L1D -212>	(238,102)	(94,2)	(208,97)	(116,1)	(168,110)	(176,0)	(-116,8)	(214,7)	(150,4)	(-76,0)	(-22,1)	(160,0)	(174,0)	(8,1)	(272,1)	(304,10)	
L1D -211>	(211,29)	(-138,1)	(5,6)	(175,125)	(-1,4)	(-20,5)	(2,36)	(24,73)	(6,5)	(7,1)	(0,44)	(29,1)	(-22,1)	(20,1)	(179,1)	(215,1)	
L1D -210>	(175,9)	(14,121)	(4,1)	(96,4)	(-14,118)	(216,1)	(-142,1)	(0,2)	(270,1)	(150,0)	(174,2)	(-88,0)	(28,91)	(118,15)	(130,2)	(112,2)	
L1D -209>	(-12,35)	(26,114)	(138,6)	(0,19)	(29,7)	(4,2)	(313,2)	(24,8)	(1,4)	(209,4)	(216,5)	(213,1)	(211,1)	(329,1)	(-182,1)	(-1,1)	
L1D -208>	(258,112)	(116,29)	(236,11)	(28,25)	(-34,30)	(-106,3)	(230,8)	(-4,4)	(256,8)	(270,70)	(1,4)	(0,1)	(178,1)	(-14,15)	(-108,2)	(206,5)	
L1D -207>	(-14,19)	(207,18)	(-60,13)	(110,111)	(5,2)	(0,14)	(2,10)	(6,4)	(1,1)	(14,1)	(196,1)	(211,2)	(322,1)	(19,1)	(-1,2)	(209,7)	
L1D -206>	(28,12)	(0,116)	(212,1)	(264,1)	(14,0)	(20,0)	(204,0)	(-24,53)	(48,6)	(-28,14)	(278,6)	(10,21)	(1,10)	(92,1)	(-22,13)	(-36,0)	
L1D -205>	(0,127)	(198,1)	(1,2)	(204,1)	(207,1)	(212,1)	(6,1)	(1,0)	(1,0)	(1,0)	(1,0)	(1,0)	(1,0)	(1,0)	(1,0)	(1,0)	
L1D -204>	(88,0)	(8,79)	(304,0)	(-18,0)	(76,1)	(-14,0)	(240,6)	(0,0)	(14,0)	(232,24)	(296,0)	(102,0)	(12,0)	(2,0)	(158,0)	(200,0)	
L1D -203>	(203,37)	(6,3)	(1,4)	(0,53)	(-152,1)	(-20,3)	(207,2)	(67,1)	(-6,3)	(2,3)	(24,2)	(-12,2)	(464,1)	(37,1)	(-1,1)	(272,1)	
L1D -202>	(-108,0)	(308,1)	(106,3)	(42,75)	(330,0)	(148,0)	(-102,0)	(6,66)	(312,0)	(-28,0)	(28,0)	(32,0)	(210,59)	(0,0)	(314,0)	(50,0)	
L1D -201>	(1,3)	(0,26)	(-1,3)	(256,1)	(2,1)	(101,1)	(318,3)	(203,2)	(414,1)	(29,3)	(355,23)	(17,1)	(-19,1)	(5,1)	(113,2)	(384,1)	
L1D -200>	(-2,1)	(162,1)	(80,104)	(174,0)	(28,0)	(198,1)	(-62,1)	(240,1)	(126,1)	(-38,1)	(0,0)	(215,0)	(14,3)	(-80,2)	(38,0)	(94,51)	
L1D -199>	(0,50)	(-8,63)	(-48,1)	(-1,1)	(187,1)	(7,2)	(200,2)	(-42,1)	(6,1)	(201,5)	(-6,1)	(-2,1)	(2,3)	(-128,1)	(1,2)	(232,1)	
L1D -198>	(160,17)	(199,1)	(201,0)	(186,0)	(6,0)	(228,0)	(-26,0)	(234,74)	(188,9)	(244,5)	(-18,0)	(0,3)	(-84,39)	(1,1)	(216,16)	(272,17)	
L1D -197>	(126,1)	(0,118)	(14,0)	(3,0)	(-61,0)	(367,0)	(24,0)	(1,0)	(1,0)	(1,0)	(1,0)	(1,0)	(1,0)	(1,0)	(1,0)	(1,0)	
L1D -196>	(0,2)	(38,22)	(236,1)	(120,1)	(192,6)	(240,2)	(-68,1)	(-78,3)	(84,114)	(338,3)	(266,1)	(130,7)	(12,44)	(326,1)	(238,3)	(-76,1)	
L1D -195>	(195,95)	(255,0)	(48,94)	(166,0)	(0,1)	(130,0)	(197,0)	(1,0)	(1,0)	(1,0)	(1,0)	(1,0)	(1,0)	(1,0)	(1,0)	(1,0)	
L1D -194>	(12,4)	(0,1)	(308,5)	(104,103)	(124,2)	(-122,2)	(-72,2)	(150,6)	(-78,3)	(190,2)	(152,6)	(16,2)	(218,6)	(-22,2)	(181,4)	(74,1)	
L1D -193>	(224,83)	(0,19)	(-26,1)	(213,1)	(-1,11)	(1,4)	(276,1)	(345,14)	(-85,1)	(-6,0)	(193,1)	(-20,0)	(67,0)	(24,0)	(385,2)	(6,0)	
L1D -192>	(66,125)	(342,1)	(104,2)	(1,0)	(-92,0)	(-42,1)	(246,1)	(-1,0)	(193,0)	(156,13)	(-24,0)	(-23,0)	(80,2)	(130,1)	(194,0)	(74,0)	
L1D -191>	(6,7)	(0,33)	(14,1)	(-1,14)	(193,16)	(220,6)	(191,3)	(172,1)	(7,9)	(-20,1)	(2,2)	(210,1)	(29,1)	(124,1)	(36,1)	(1,4)	
L1D -190>	(188,101)	(92,0)	(-228,0)	(208,5)	(254,10)	(160,0)	(14,1)	(1,5)	(318,2)	(338,0)	(128,6)	(0,0)	(2,0)	(106,1)	(84,0)	(136,8)	
L1D -189>	(0,27)	(1,4)	(24,4)	(-20,1)	(191,2)	(234,1)	(212,1)	(6,5)	(189,1)	(188,1)	(184,1)	(-1,8)	(160,1)	(1,0)	(1,0)	(1,0)	
L1D -188>	(0,1)	(164,5)	(-75,2)	(20,3)	(260,2)	(-15,2)	(100,99)	(262,9)	(228,4)	(254,1)	(28,24)	(-46,3)	(150,10)	(286,32)	(38,1)	(-76,73)	
L1D -187>	(-12,115)	(187,16)	(100,1)	(272,0)	(0,3)	(1,0)	(-96,24)	(9,22)	(-20,0)	(146,0)	(1,0)	(1,0)	(1,0)	(1,0)	(1,0)	(1,0)	
L1D -186>	(1,1)	(-122,20)	(-76,2)	(-46,5)	(212,40)	(-8,0)	(0,4)	(214,0)	(267,74)	(218,0)	(-2,0)	(64,0)	(160,0)	(102,10)	(-44,0)	(112,0)	
L1D -185>	(12,0)	(185,0)	(2,0)	(-172,0)	(215,0)	(0,0)	(106,99)	(138,0)	(1,0)	(1,0)	(1,0)	(1,0)	(1,0)	(1,0)	(1,0)	(1,0)	
L1D -184>	(110,74)	(6,1)	(-46,4)	(72,5)	(-108,1)	(194,12)	(12,9)	(180,70)	(210,1)	(-8,2)	(-12,2)	(-64,2)	(212,5)	(68,4)	(140,1)	(-16,1)	
L1D -183>	(38,63)	(0,18)	(2,18)	(-9,3)	(1,4)	(5,100)	(8,14)	(161,18)	(122,37)	(-4,1)	(-1,2)	(6,1)	(-122,1)	(180,0)	(1,0)	(1,0)	
L1D -182>	(214,1)	(-36,70)	(106,1)	(-132,69)	(38,29)	(0,1)	(160,3)	(-2,1)	(-46,3)	(250,1)	(-88,0)	(-118,0)	(-66,18)	(-136,2)	(24,0)	(132,0)	
L1D -181>	(115,1)	(-1,108)	(213,19)	(301,33)	(0,9)	(67,6)	(95,77)	(293,20)	(265,72)	(351,8)	(361,46)	(319,8)	(385,11)	(160,18)	(1,2)	(317,7)	
L1D -180>	(272,1)	(8,112)	(66,26)	(236,1)	(82,12)	(-138,81)	(-158,2)	(208,121)	(-30,112)	(-132,3)	(160,26)	(50,2)	(112,113)	(178,5)	(306,1)	(34,1)	
L1D -179>	(68,1)	(-40,118)	(0,5)	(1,2)	(34,3)	(-172,1)	(-1,4)	(160,1)	(1,0)	(1,0)	(1,0)	(1,0)	(1,0)	(1,0)	(1,0)	(1,0)	
L1D -178>	(102,89)	(-28,0)	(144,0)	(214,0)	(96,0)	(136,95)	(-138,0)	(204,2)	(232,0)	(277,0)	(0,0)	(176,0)	(48,8)	(270,1)	(-88,0)	(238,0)	
L1D -177>	(244,113)	(0,29)	(1,29)	(171,86)	(-19,1)	(177,14)	(26,2)	(-1,2)	(348,1)	(272,42)	(154,1)	(188,1)	(173,5)	(215,28)	(3,24)	(182,1)	
L1D -176>	(344,3)	(4,18)	(-169,0)	(-98,0)	(240,0)	(2,7)	(175,67)	(347,70)	(353,0)	(348,1)	(-168,0)	(268,9)	(212,1)	(193,1)	(345,3)	(172,1)	
L1D -175>	(172,20)	(4,116)	(-8,6)	(12,15)	(-168,2)	(3,5)	(344,1)	(1,1)	(348,3)	(-170,1)	(2,2)	(-172,2)	(-6,1)	(180,1)	(171,0)	(-169,3)	
L1D -174>	(50,1)	(32,13)	(168,1)	(-172,45)	(343,2)	(173,98)	(346,2)	(-3,4)	(344,6)	(3,32)	(1,1)	(87,1)	(0,1)	(172,2)	(-169,2)	(4,13)	
L1D -173>	(-171,8)	(344,34)	(170,60)	(345,4)	(174,43)	(-173,8)	(-172,15)	(171,3)	(172,89)	(1,29)	(-1,9)	(181,1)	(343,11)	(28,3)	(3,13)	(173,67)	
L1D -172>	(0,1)	(175,4)	(-4,1)	(170,2)	(345,9)	(176,0)	(173,70)	(-90,2)	(171,4)	(1,9)	(-3,3)	(169,15)	(340,0)	(-1,0)	(3,0)	(-172,1)	
L1D -171>	(126,15)	(172,66)	(174,1)	(173,42)	(-3,24)	(170,111)	(-2,47)	(344,39)	(342,8)	(168,29)	(-1,113)	(0,18)	(343,5)	(-172,40)	(1,67)	(-173,94)	
L1D -170>	(0,3)	(-173,2)	(173,90)	(174,28)	(342,7)	(-3,10)	(-1,54)	(-172,29)	(-110,19)	(180,22)	(-175,2)	(172,43)	(33,2)	(169,11)	(-4,6)	(1,3)	
L1D -169>	(172,0)	(-1,36)	(171,74)	(-173,0)	(-172,9)	(1,1)	(342,0)	(-171,4)	(168,2)	(173,0)	(344,0)	(-2,0)	(-4,0)	(341,0)	(170,0)	(0,0)	
L1D -168>	(112,0)	(-172,1)	(87,1)	(-3,6)	(158,65)	(172,25)	(-4,6)	(1,0)	(168,1)	(338,2)	(40,3)	(344,0)	(56,1)	(343,8)	(337,2)	(182,0)	
L1D -167>	(-4,67)	(0,2)	(-1,1)	(167,12)	(168,1)	(86,89)	(342,50)	(-2,0)	(-172,12)	(95,46)	(1,0)	(172,0)	(114,10)	(-6,0)	(5,0)	(361,9)	
L1D -166>	(-106,1)	(-46,1)	(254,0)	(26,1)	(-181,1)	(-4,3)	(136,0)	(120,1)	(28,0)	(0,1)	(2,0)	(1,0)	(246,0)	(214,80)	(220,5)	(114,2)	
L1D -165>	(164,1)	(1,46)	(166,1)	(-1,113)	(172,92)	(9,1)	(-172,23)	(-2,24)	(0,2)	(-62,0)	(342,0)	(3,0)	(344,3)	(2,2)	(169,0)	(165,0)	
L1D -164>	(114,79)	(-6,1)	(48,12)	(120,0)	(62,0)	(169,0)	(170,0)	(200,0)	(13,9)	(-174,0)	(0,0)	(1,0)	(1,0)	(1,0)	(1,0)	(1,0)	
L1D -163>	(1,97)	(-20,4)	(12,1)	(171,2)	(112,1)	(1,0)	(1,0)	(1,0)	(1,0)	(1,0)	(1,0)	(1,0)	(1,0)	(1,0)	(1,0)	(1,0)	
L1D -162>	(148,1)	(238,91)	(112,4)	(-148,4)	(-80,0)	(11,2)	(-1,1)	(-70,0)	(180,1)	(-58,0)	(6,0)	(4,0)	(-38,85)	(-64,3)	(-2,16)	(136,2)	
L1D -161>	(-14,87)	(32,2)	(0,73)	(-110,15)	(1,3)	(-1,6)	(161,4)	(5,101)	(21,18)	(162,2)	(6,2)	(-42,2)	(-9,2)	(-4,1)	(72,1)	(-8,2)	
L1D -160>	(-4,1)	(-98,0)	(2,0)	(188,1)	(-102,0)	(116,0)	(80,0)	(98,0)	(246,1)	(12,0)	(234,2)	(-100,83)	(28,0)	(145,0)	(-64,88)	(-200,0)	
L1D -159>	(-99,105)	(-98,3)	(2,0)	(-64,0)	(-158,0)	(0,0)	(95,95)	(9,47)	(-1,0)	(3,16)	(126,0)	(120,0)	(27,0)	(18,1)	(1,0)	(1,0)	
L1D -158>	(-154,1)	(-64,2)	(84,1)	(66,3)	(126,1)	(188,71)	(-8,2)	(152,2)	(-124,0)	(-148,0)	(150,2)	(48,1)	(162,0)	(20,0)	(-56,0)	(144,1)	
L1D -157>	(-126,4)	(157,7)	(1,3)	(3,76)	(0,3)	(-224,1)	(-1,10)	(13,7)	(2,2)	(21,1)	(158,1)	(94,0)	(4,2)	(159,0)	(137,0)	(24,0)	
L1D -156>	(28,6)	(172,1)	(102,2)	(-26,8)	(106,0)	(88,0)	(74,0)	(188,1)	(232,0)	(-100,82)	(104,7)	(242,64)	(-6,1)	(142,1)	(136,57)	(18,2)	
L1D -155>	(155,14)	(1,11)	(2,10)	(52,19)	(6,1)	(-1,2)	(0,6)	(116,2)	(-26,1)	(156,1)	(-137,2)	(-154,1)	(1,0)	(1,0)	(1,0)	(1,0)	
L1D -154>	(-118,1)	(96,9)	(34,77)	(140,4)	(122,6)	(210,79)	(106,1)	(-12,69)	(130,1)	(260,2)	(0,2)	(124,1)	(8,2)	(118,3)	(188,2)	(-102,8)	
L1D -153>	(0,5)	(1,9)	(154,3)	(12,24)	(98,1)	(2,7)	(64,1)	(153,3)	(326,1)	(127,1)	(184,1)	(5,1)	(107,1)	(-1,1)	(345,1)	(3,1)	
L1D -152>	(-122,109)	(96,4)	(153,0)	(-134,0)	(390,0)	(226,0)	(88,0)	(-90,0)	(-136,1)	(-78,0)	(0,0)	(56,0)	(32,0)	(262,0)	(118,0)	(1,0)	
L1D -151>	(2,2)	(8,1)	(-172,1)	(151,1)	(5,1)	(-96,0)	(0,1)	(1,1)	(-20,92)	(-5,57)	(152,1)	(-21,57)	(125,0)	(10,0)	(-1,11)	(3,1)	
L1D -150>	(208,2)	(-174,1)	(224,2)	(210,4)	(260,1)	(88,0)	(206,0)	(138,3)	(28,2)	(194,0)	(-46,1)	(220,2)	(258,0)	(352,112)	(-50,1)	(42,2)	
L1D -149>	(-9,0)	(-56,0)	(-12,0)	(3,1)	(27,0)	(88,81)	(-8,4)	(0,0)	(-154,3)	(106,0)	(371,0)	(15,1)	(12,0)	(13,4)	(1,0)	(1,0)	
L1D -148>	(326,96)	(212,6)	(304,1)	(216,8)	(-122,113)	(100,1)	(196,1)	(0,0)	(-100,2)	(-110,0)	(214,0)	(218,1)	(206,3)	(308,0)	(42,0)	(258,1)	
L1D -147>	(10,1)	(121,1)	(141,43)	(30,0)	(-172,0)	(-206,0)	(0,0)	(-12,81)	(-125,31)	(-33,16)	(217,2)	(17,0)	(262,3)	(2,0)	(-1,0)	(13,0)	
L1D -146>	(-100,102)	(-102,1)	(30,24)	(0,1)	(106,11)	(148,92)	(-96,2)	(2,15)	(-76,11)	(36,1)	(48,17)	(-84,11)	(1,17)	(-33,4)	(114,4)	(9,49)	
L1D -145>	(0,85)	(82,1)	(12,0)	(8,0)	(44,0)	(145,0)	(-1,1)	(212,0)	(5,0)	(1,0)	(1,0)	(1,0)	(1,0)	(1,0)	(1,0)	(1,0)	
L1D -144>	(38,80)	(-26,0)	(236,81)	(-88,0)	(12,0)	(-10,0)	(-72,2)	(151,0)	(7,1)	(-86,1)	(-170,13)	(36,0)	(-120,0)	(210,0)	(0,6)	(66,64)	
L1D -143>	(113,2)	(-92,0)	(0,0)	(-21,114)	(-8,3)	(-125,0)	(1,0)	(1,0)	(1,0)	(1,0)	(1,0)	(1,0)	(1,0)	(1,0)	(1,0)	(1,0)	
L1D -142>	(12,1)	(-96,2)	(-178,98)	(156,1)	(242,1)	(1,2)	(184,0)	(18,4)	(232,3)	(-3,0)	(244,0)	(-76,5)	(-6,6)	(32,1)	(49,0)	(154,12)	
L1D -141>	(-1,3)	(1,5)	(-12,2)	(-3,43)	(140,2)	(141,3)	(-207,1)	(0,3)	(139,1)	(108,1)	(36,1)	(142,3)	(502,1)	(6,1)	(5,1)	(-160,1)	
L1D -140>	(96,3)	(-92,6)	(26,72)	(-21,67)	(13,4)	(-14,56)	(150,17)	(102,4)	(-50,35)	(-25,2)	(0,4)	(38,1)	(170,2)	(184,1)	(140,1)	(50,49)	
L1D -139>	(-4,47)	(1,69)	(-1,2)	(-25,7)	(12,2)	(139,0)	(-17,0)	(3,0)	(-12,0)	(1,0)	(1,0)	(1,0)	(1,0)	(1,0)	(1,0)	(1,0)	
L1D -138>	(236,61)	(-181,1)	(66,7)	(-2,1)	(330,1)	(232,70)	(-6,71)	(-12,2)	(-132,0)	(294,1)	(84,7)	(254,20)	(-36,1)	(-1,1)	(-154,1)	(-98,54)	
L1D -137>	(-7,75)	(0,5)	(5,0)	(232,25)	(4,0)	(-12,0)	(-1,0)	(-8,8)	(-33,27)	(13,1)	(12,4)	(-14,0)	(19,0)	(176,0)	(6,0)	(1,0)	
L1D -136>	(-180,83)	(-13,79)	(-84,1)	(137,1)	(126,2)	(-10,1)	(-314,1)	(122,0)	(232,0)	(-108,3)	(28,1)	(0,1)	(-94,3)	(254,2)	(14,1)	(42,5)	
L1D -135>	(-60,2)	(128,6)	(5,1)	(0,40)	(2,6)	(1,9)	(6,74)	(135,8)	(-2,1)	(93,1)	(139,1)	(11,1)	(134,1)	(138,1)	(-222,1)	(7,6)	
L1D -134>	(-13,99)	(118,3)	(132,0)	(22,73)	(36,0)	(-132,1)	(134,0)	(72,1)	(162,80)	(-146,1)	(140,0)	(78,0)	(2,0)	(298,109)	(-88,0)	(216,1)	
L1D -133>	(220,2)	(134,6)	(1,10)	(-3,49)	(228,6)	(6,6)	(133,4)	(278,1)	(0,5)	(131,2)	(136,1)	(135,1)	(372,1)	(-12,1)	(2,1)	(-256,1)	
L1D -132>	(179,1)	(14,0)	(128,1)	(82,65)	(276,1)	(120,0)	(70,49)	(-6,0)	(-42,2)	(110,53)	(78,0)	(-82,10)	(6,1)	(-108,4)	(267,1)	(-73,1)	
L1D -131>	(-127,7)	(6,12)	(166,1)	(1,4)	(24,1)	(132,5)	(5,2)	(131,5)	(30,1)	(179,3)	(0,6)	(-1,1)	(2,1)	(33,1)	(89,1)	(1,0)	
L1D -130>	(14,6)	(-92,10)	(-16,81)	(38,1)	(122,1)	(128,1)	(188,84)	(348,1)	(26,1)	(190,1)	(278,1)	(88,1)	(12,1)	(20,7)	(56,96)	(268,2)	
L1D -129>	(46,69)	(2,1)	(1,2)	(384,0)	(129,2)	(0,4)	(6,2)	(181,2)	(-78,0)	(3,1)	(-2,0)	(-1,0)	(173,0)	(8,0)	(130,1)	(-184,0)	
L1D -128>	(142,83)	(-1,114)	(70,11)	(223,0)	(266,0)	(14,1)	(318,1)	(-2,0)	(144,1)	(314,1)	(22,1)	(132,2)	(126,1)	(226,1)	(-54,3)	(16,3)	
L1D -127>	(166,126)	(185,1)	(129,0)	(-88,1)	(184,3)	(-22,1)	(117,0)	(122,3)	(-140,1)	(14,0)	(-1,0)	(127,0)	(1,0)	(1,0)	(1,0)	(1,0)	
L1D -126>	(0,1)	(-1,79)	(64,0)	(96,0)	(32,1)	(6,2)	(70,7)	(-46,59)	(-66,0)	(1,0)	(33,0)	(186,1)	(178,2)	(24,38)	(16,0)	(172,50)	
L1D -125>	(0,1)	(-1,1)	(-228,0)	(-10,0)	(125,2)	(1,1)	(240,105)	(226,87)	(5,2)	(84,2)	(3,1)	(126,1)	(-3,9)	(-348,0)	(-12,0)	(-18,0)	
L1D -124>	(50,1)	(130,74)	(220,1)	(-13,87)	(-30,1)	(22,1)	(70,1)	(-26,1)	(-21,1)	(21,1)	(32,0)	(-80,0)	(0,0)	(216,84)	(110,0)	(112,1)	
L1D -123>	(332,102)	(124,0)	(105,33)	(236,1)	(1,0)	(24,0)	(238,1)	(0,2)	(82,3)	(154,0)	(123,0)	(97,0)	(66,0)	(212,0)	(-1,0)	(-79,0)	
L1D -122>	(218,103)	(78,15)	(-96,108)	(117,3)	(-90,1)	(-122,2)	(-28,18)	(-94,100)	(-92,5)	(332,108)	(150,73)	(44,91)	(180,91)	(154,101)	(246,5)	(14,6)	
L1D -121>	(80,2)	(-27,80)	(2,1)	(-2,0)	(25,0)	(-267,0)	(70,0)	(254,0)	(-26,2)	(236,2)	(-35,0)	(76,0)	(1,0)	(1,0)	(1,0)	(1,0)	
L1D -120>	(-94,2)	(103,3)	(24,75)	(62,1)	(-66,0)	(-88,1)	(352,1)	(-174,4)	(-114,1)	(116,0)	(36,1)	(146,1)	(338,0)	(-10,0)	(162,0)	(38,0)	
L1D -119>	(95,0)	(25,102)	(120,0)	(4,0)	(0,0)	(1,0)	(1,0)	(1,0)	(1,0)	(1,0)	(1,0)	(1,0)	(1,0)	(1,0)	(1,0)	(1,0)	
L1D -118>	(1,1)	(68,124)	(328,2)	(144,17)	(-88,10)	(2,1)	(308,4)	(226,2)	(-36,2)	(78,4)	(152,3)	(-102,100)	(-66,4)	(120,2)	(149,6)	(34,3)	
L1D -117>	(71,59)	(82,52)	(5,1)	(-5,96)	(117,4)	(0,1)	(115,1)	(67,1)	(55,1)	(112,8)	(-1,6)	(94,2)	(1,1)	(-60,0)	(118,1)	(-18,0)	
L1D -116>	(2,0)	(118,70)	(218,5)	(122,12)	(216,3)	(-64,0)	(136,2)	(110,1)	(212,2)	(-68,1)	(-7,1)	(-102,2)	(284,0)	(-30,0)	(66,0)	(24,1)	
L1D -115>	(87,102)	(69,0)	(-41,0)	(-5,1)	(101,1)	(0,0)	(80,0)	(185,1)	(214,0)	(3,0)	(98,3)	(1,0)	(1,0)	(1,0)	(1,0)	(1,0)	
L1D -114>	(130,124)	(-14,1)	(139,1)	(-2,1)	(220,1)	(112,3)	(1,1)	(122,2)	(-94,92)	(82,2)	(-42,0)	(-66,4)	(16,0)	(-4,0)	(-96,4)	(-200,0)	
L1D -113>	(6,16)	(10,2)	(38,4)	(1,10)	(18,4)	(114,2)	(113,1)	(78,30)	(0,6)	(152,9)	(108,1)	(180,2)	(51,4)	(67,6)	(-6,1)	(-9,13)	
L1D -112>	(-16,31)	(-122,88)	(175,101)	(-88,16)	(166,8)	(66,6)	(0,4)	(-72,11)	(180,46)	(-100,22)	(-220,8)	(64,18)	(112,6)	(-56,6)	(170,5)	(49,38)	
L1D -111>	(45,56)	(1,8)	(93,69)	(0,4)	(79,3)	(5,6)	(100,15)	(98,18)	(-14,1)	(6,5)	(150,1)	(202,1)	(24,1)	(-184,1)	(3,1)	(62,1)	
L1D -110>	(8,1)	(127,63)	(-98,2)	(56,1)	(-16,57)	(234,5)	(352,2)	(-32,2)	(180,3)	(-108,62)	(118,73)	(-48,1)	(-20,2)	(262,3)	(302,56)	(100,2)	
L1D -109>	(179,4)	(204,83)	(382,1)	(0,1)	(98,0)	(89,0)	(100,0)	(4,0)	(284,0)	(1,1)	(7,3)	(99,25)	(97,13)	(78,2)	(110,2)	(2,0)	
L1D -108>	(0,5)	(118,108)	(210,85)	(-10,22)	(15,6)	(28,1)	(107,1)	(212,5)	(74,2)	(96,34)	(290,4)	(78,23)	(-242,3)	(324,3)	(10,1)	(82,70)	
L1D -107>	(0,7)	(-4,2)	(107,23)	(-2,2)	(6,2)	(24,2)	(-82,1)	(108,5)	(-9,1)	(-54,1)	(-228,1)	(5,2)	(100,1)	(1,2)	(156,1)	(186,1)	
L1D -106>	(260,6)	(117,11)	(14,4)	(-50,8)	(96,79)	(-94,59)	(-90,2)	(-126,2)	(80,1)	(268,3)	(58,1)	(122,12)	(150,2)	(78,1)	(10,1)	(76,4)	
L1D -105>	(-20,83)	(0,8)	(-328,7)	(3,0)	(-1,0)	(-4,2)	(24,0)	(106,0)	(105,0)	(1,0)	(1,0)	(1,0)	(1,0)	(1,0)	(1,0)	(1,0)	
L1D -104>	(96,68)	(0,0)	(12,1)	(206,0)	(104,1)	(310,1)	(136,12)	(-2,5)	(-36,1)	(66,17)	(-102,0)	(72,2)	(200,2)	(-52,11)	(-108,0)	(336,0)	
L1D -103>	(60,85)	(-52,5)	(0,1)	(14,1)	(103,10)	(-1,0)	(-102,0)	(1,0)	(95,0)	(169,0)	(7,1)	(104,12)	(1,0)	(1,0)	(1,0)	(1,0)	
L1D -102>	(86,69)	(30,0)	(116,15)	(184,6)	(74,15)	(66,50)	(-234,7)	(-80,10)	(0,1)	(234,39)	(178,5)	(-36,31)	(256,3)	(58,5)	(326,1)	(212,1)	
L1D -101>	(113,3)	(0,8)	(-121,68)	(-41,41)	(-1,3)	(201,1)	(101,13)	(13,5)	(52,1)	(3,1)	(98,10)	(102,11)	(180,1)	(9,1)	(17,1)	(146,1)	
L1D -100>	(308,116)	(-8,67)	(108,118)	(28,2)	(-64,3)	(101,1)	(14,1)	(288,91)	(-128,2)	(62,1)	(276,2)	(220,87)	(1,1)	(-2,1)	(-52,3)	(182,0)	
L1D -99>	(99,21)	(0,43)	(258,1)	(-123,11)	(78,13)	(79,0)	(110,0)	(61,1)	(-1,0)	(89,6)	(62,89)	(152,0)	(98,1)	(24,16)	(87,0)	(60,7)	
L1D -98>	(99,1)	(0,25)	(178,4)	(-188,10)	(-22,99)	(78,31)	(-1,7)	(194,5)	(-167,7)	(-92,45)	(-112,22)	(66,6)	(98,29)	(84,17)	(96,3)	(60,21)	
L1D -97>	(-186,13)	(-96,0)	(-2,0)	(101,0)	(0,0)	(98,8)	(1,0)	(95,0)	(4,0)	(99,0)	(-170,104)	(-122,1)	(68,1)	(97,2)	(32,2)	(1,0)	
L1D -96>	(132,8)	(20,93)	(142,1)	(16,11)	(208,6)	(-63,60)	(314,4)	(216,91)	(130,84)	(-98,18)	(-112,10)	(100,77)	(126,3)	(-46,4)	(10,2)	(148,4)	
L1D -95>	(-2,15)	(29,43)	(97,8)	(1,6)	(5,2)	(9,21)	(485,0)	(0,1)	(17,11)	(96,2)	(-37,1)	(95,6)	(24,3)	(263,10)	(361,68)	(2,2)	
L1D -94>	(28,69)	(172,1)	(95,1)	(-6,25)	(2,81)	(198,8)	(328,1)	(0,1)	(312,0)	(-70,91)	(-244,2)	(240,0)	(30,2)	(62,0)	(-32,49)	(216,8)	
L1D -93>	(-8,121)	(0,1)	(146,1)	(107,8)	(-37,1)	(132,1)	(124,1)	(93,1)	(94,0)	(-52,10)	(4,0)	(129,0)	(24,12)	(111,1)	(1,0)	(1,0)	
L1D -92>	(210,80)	(24,58)	(-14,8)	(1,1)	(20,106)	(-30,113)	(160,13)	(84,73)	(18,10)	(-50,16)	(26,15)	(96,112)	(52,24)	(28,31)	(-28,6)	(-80,5)	
L1D -91>	(122,0)	(85,1)	(1,0)	(91,0)	(345,0)	(96,74)	(-38,1)	(12,0)	(30,0)	(-5,0)	(175,12)	(-1,4)	(7,0)	(-103,0)	(-2,0)	(8,0)	
L1D -90>	(220,82)	(108,1)	(254,6)	(91,16)	(72,1)	(-12,2)	(184,5)	(-34,96)	(1,6)	(84,2)	(0,2)	(260,1)	(-174,2)	(-176,4)	(68,2)	(120,5)	
L1D -89>	(98,9)	(-1,1)	(0,4)	(4,2)	(6,11)	(-3,9)	(-12,3)	(87,4)	(-8,98)	(15,50)	(12,19)	(89,2)	(99,2)	(90,1)	(-9,4)	(78,1)	
L1D -88>	(48,86)	(6,5)	(242,4)	(410,1)	(276,1)	(137,2)	(-120,88)	(16,1)	(-32,74)	(72,93)	(232,12)	(-12,83)	(-292,2)	(-246,6)	(-8,6)	(28,102)	
L1D -87>	(98,116)	(1,4)	(-222,1)	(88,1)	(0,83)	(97,1)	(-4,0)	(-126,0)	(8,0)	(70,7)	(32,6)	(2,0)	(1,0)	(1,0)	(1,0)	(1,0)	
L1D -86>	(-88,50)	(-58,68)	(-44,6)	(-1,1)	(13,3)	(-120,1)	(168,20)	(-294,62)	(8,4)	(-26,5)	(10,5)	(-14,4)	(214,2)	(266,1)	(90,1)	(82,1)	
L1D -85>	(-1,95)	(-202,1)	(90,0)	(268,0)	(2,0)	(107,0)	(12,43)	(92,1)	(-8,8)	(72,0)	(0,1)	(1,1)	(1,0)	(1,0)	(1,0)	(1,0)	
L1D -84>	(172,53)	(13,52)	(302,89)	(38,1)	(-236,30)	(98,6)	(-102,5)	(314,8)	(-204,20)	(82,7)	(-238,8)	(-124,1)	(106,1)	(291,1)	(18,74)	(0,1)	
L1D -83>	(385,1)	(345,0)	(0,3)	(80,0)	(81,105)	(-1,83)	(83,64)	(43,0)	(1,0)	(-9,5)	(108,2)	(41,0)	(-5,0)	(-2,0)	(1,0)	(1,0)	
L1D -82>	(6,1)	(117,8)	(-222,1)	(60,32)	(1,75)	(-2,14)	(84,110)	(88,4)	(2,27)	(-228,1)	(-110,1)	(30,2)	(308,1)	(78,23)	(246,6)	(-41,11)	
L1D -81>	(3,1)	(81,81)	(-1,1)	(-49,1)	(116,3)	(-7,4)	(75,1)	(1,0)	(1,0)	(1,0)	(1,0)	(1,0)	(1,0)	(1,0)	(1,0)	(1,0)	
L1D -80>	(96,44)	(223,1)	(138,82)	(115,7)	(318,3)	(188,5)	(260,39)	(81,1)	(186,1)	(-2,1)	(82,6)	(-86,1)	(1,14)	(-41,1)	(36,1)	(-7,43)	
L1D -79>	(62,6)	(1,4)	(61,10)	(0,1)	(-1,1)	(99,1)	(79,1)	(-4,1)	(22,73)	(-242,1)	(75,15)	(132,1)	(-30,1)	(124,0)	(80,1)	(2,0)	
L1D -78>	(66,4)	(0,86)	(87,9)	(99,13)	(338,16)	(60,108)	(-41,25)	(172,25)	(1,1)	(98,17)	(230,4)	(8,8)	(18,24)	(128,16)	(76,13)	(-102,17)	
L1D -77>	(13,124)	(-12,1)	(-1,7)	(78,1)	(20,1)	(1,3)	(1,0)	(1,0)	(1,0)	(1,0)	(1,0)	(1,0)	(1,0)	(1,0)	(1,0)	(1,0)	
L1D -76>	(-130,15)	(74,1)	(2,1)	(236,1)	(-13,76)	(338,71)	(-21,2)	(314,3)	(82,1)	(-48,82)	(98,4)	(1,1)	(-1,0)	(-138,76)	(132,2)	(194,1)	
L1D -75>	(37,1)	(0,105)	(1,22)	(32,8)	(38,0)	(103,24)	(361,41)	(75,3)	(18,26)	(74,0)	(95,1)	(360,0)	(76,4)	(128,0)	(-104,0)	(-1,2)	
L1D -74>	(17,4)	(-36,56)	(44,43)	(1,2)	(6,108)	(2,2)	(72,31)	(84,4)	(74,1)	(-98,1)	(130,3)	(-168,10)	(14,4)	(-128,109)	(-112,13)	(314,90)	
L1D -73>	(221,0)	(67,110)	(-115,0)	(-20,3)	(-21,2)	(74,0)	(-177,1)	(2,0)	(1,0)	(1,0)	(1,0)	(1,0)	(1,0)	(1,0)	(1,0)	(1,0)	
L1D -72>	(26,9)	(1,1)	(168,5)	(-244,1)	(266,3)	(-7,70)	(-48,3)	(15,7)	(-208,3)	(62,1)	(-98,2)	(34,13)	(6,1)	(-122,62)	(72,73)	(-16,50)	
L1D -71>	(71,5)	(-138,2)	(-150,19)	(76,5)	(47,1)	(117,1)	(1,2)	(-13,1)	(0,1)	(-20,114)	(2,5)	(9,6)	(-21,106)	(32,1)	(-1,2)	(124,1)	
L1D -70>	(-70,82)	(-1,2)	(-10,1)	(28,82)	(30,42)	(106,2)	(336,81)	(-85,1)	(1,1)	(-38,4)	(35,64)	(-188,7)	(154,1)	(118,8)	(308,2)	(384,2)	
L1D -69>	(-1,3)	(1,38)	(70,0)	(22,15)	(76,0)	(0,0)	(95,1)	(12,88)	(7,0)	(-85,6)	(-262,0)	(2,0)	(296,0)	(1,0)	(1,0)	(1,0)	
L1D -68>	(-2,97)	(84,1)	(11,7)	(170,3)	(114,3)	(184,1)	(-4,24)	(308,5)	(-6,5)	(48,11)	(22,10)	(-202,1)	(0,1)	(186,8)	(-222,2)	(69,1)	
L1D -67>	(-138,64)	(1,31)	(38,1)	(385,0)	(12,20)	(293,0)	(67,0)	(3,0)	(1,0)	(1,0)	(1,0)	(1,0)	(1,0)	(1,0)	(1,0)	(1,0)	
L1D -66>	(298,84)	(-148,4)	(-28,10)	(96,13)	(92,20)	(-176,62)	(26,6)	(-45,8)	(12,90)	(-26,102)	(1,2)	(84,22)	(194,83)	(20,5)	(184,88)	(192,7)	
L1D -65>	(1,8)	(6,4)	(-1,1)	(3,4)	(65,7)	(2,2)	(0,1)	(118,3)	(343,1)	(-116,121)	(-154,64)	(158,1)	(-32,67)	(-122,2)	(66,3)	(59,10)	
L1D -64>	(66,3)	(62,92)	(26,81)	(0,1)	(-244,75)	(90,65)	(-13,33)	(2,3)	(88,13)	(4,3)	(-136,8)	(92,1)	(-115,4)	(-146,2)	(96,2)	(79,2)	
L1D -63>	(141,83)	(95,63)	(214,1)	(-184,10)	(108,0)	(-154,0)	(131,0)	(17,0)	(-177,0)	(63,0)	(116,0)	(416,0)	(69,0)	(85,0)	(345,0)	(-137,0)	
L1D -62>	(-32,125)	(-8,7)	(90,55)	(118,89)	(4,85)	(56,13)	(-110,1)	(54,29)	(-128,2)	(-10,2)	(-72,4)	(-190,101)	(242,2)	(140,4)	(102,4)	(48,5)	
L1D -61>	(-1,3)	(1,112)	(-242,19)	(79,1)	(-186,18)	(-122,18)	(99,6)	(-84,41)	(257,1)	(5,1)	(60,0)	(10,18)	(344,0)	(39,0)	(343,0)	(61,0)	
L1D -60>	(-140,58)	(60,27)	(90,1)	(-345,0)	(-90,7)	(-8,75)	(0,8)	(290,0)	(54,0)	(72,2)	(-196,75)	(99,12)	(-10,4)	(52,7)	(-1,1)	(30,2)	
L1D -59>	(1,30)	(60,2)	(0,6)	(-1,2)	(2,1)	(-127,35)	(3,1)	(-7,115)	(59,11)	(58,2)	(20,1)	(69,1)	(116,1)	(18,1)	(5,1)	(24,0)	
L1D -58>	(-42,94)	(48,25)	(-62,70)	(0,5)	(-10,2)	(102,3)	(-58,23)	(118,27)	(-190,5)	(60,4)	(326,115)	(-188,91)	(-18,82)	(115,113)	(-126,90)	(96,3)	
L1D -57>	(57,47)	(-23,78)	(-21,25)	(-20,82)	(62,1)	(159,2)	(-10,2)	(-1,5)	(446,1)	(58,5)	(38,1)	(-127,9)	(41,1)	(53,1)	(24,0)	(56,0)	
L1D -56>	(16,16)	(62,1)	(0,1)	(56,1)	(-126,1)	(6,1)	(-88,2)	(-180,0)	(-1,1)	(72,1)	(294,64)	(45,6)	(182,1)	(240,2)	(40,1)	(102,0)	
L1D -55>	(45,5)	(1,10)	(92,1)	(167,1)	(49,0)	(56,0)	(47,0)	(54,0)	(133,91)	(19,0)	(-3,24)	(-154,27)	(-235,0)	(63,0)	(55,2)	(-1,3)	
L1D -54>	(40,24)	(55,1)	(318,93)	(223,1)	(76,7)	(-24,2)	(1,6)	(-12,1)	(22,3)	(38,9)	(-132,2)	(2,1)	(146,4)	(-23,1)	(-98,4)	(-166,1)	
L1D -53>	(20,0)	(0,1)	(1,6)	(53,8)	(-1,3)	(-332,0)	(148,6)	(52,0)	(146,90)	(-122,13)	(323,0)	(5,0)	(2,0)	(54,1)	(60,0)	(-3,0)	
L1D -52>	(40,6)	(-98,24)	(24,1)	(-26,10)	(-136,1)	(52,1)	(-32,20)	(114,103)	(-46,8)	(-76,3)	(-252,4)	(13,18)	(-220,2)	(-114,2)	(-104,7)	(-1,2)	
L1D -51>	(52,110)	(6,21)	(1,4)	(-26,2)	(155,52)	(-260,1)	(26,3)	(50,1)	(51,19)	(49,3)	(0,2)	(5,2)	(-219,1)	(60,3)	(374,0)	(-1,2)	
L1D -50>	(4,2)	(272,68)	(-144,2)	(22,13)	(-80,3)	(136,51)	(56,9)	(200,39)	(10,5)	(40,1)	(-70,3)	(16,10)	(-68,2)	(122,2)	(13,7)	(-234,2)	
L1D -49>	(38,1)	(-4,1)	(1,114)	(56,2)	(12,58)	(-8,0)	(-10,0)	(18,0)	(54,0)	(49,2)	(0,0)	(2,0)	(46,0)	(-1,24)	(34,0)	(50,3)	
L1D -48>	(16,34)	(15,21)	(46,34)	(1,1)	(-148,2)	(9,67)	(-1,2)	(13,18)	(10,12)	(-2,35)	(-26,2)	(136,1)	(-80,33)	(-354,34)	(214,2)	(-106,29)	
L1D -47>	(41,1)	(0,15)	(8,3)	(51,104)	(47,64)	(12,1)	(38,30)	(-2,0)	(39,1)	(-5,0)	(34,0)	(-208,0)	(-1,2)	(1,1)	(1,0)	(1,0)	
L1D -46>	(172,5)	(-92,76)	(50,70)	(266,75)	(44,11)	(-222,11)	(68,15)	(-1,64)	(-4,2)	(-234,32)	(127,22)	(45,26)	(51,3)	(-108,68)	(14,22)	(1,1)	
L1D -45>	(98,1)	(-3,1)	(282,1)	(93,64)	(14,19)	(45,2)	(46,1)	(40,1)	(-204,97)	(1,5)	(72,1)	(-1,8)	(-244,1)	(4,1)	(44,0)	(129,1)	
L1D -44>	(46,106)	(2,5)	(43,7)	(-100,6)	(-112,5)	(-18,1)	(102,3)	(50,12)	(-78,1)	(-36,21)	(122,1)	(18,9)	(172,3)	(42,4)	(-6,22)	(-86,3)	
L1D -43>	(-12,4)	(-1,5)	(-260,3)	(-92,89)	(3,3)	(6,5)	(7,4)	(1,4)	(-10,1)	(43,1)	(0,0)	(-7,43)	(70,1)	(-13,8)	(2,1)	(48,0)	
L1D -42>	(138,106)	(33,20)	(-4,28)	(38,2)	(10,1)	(-236,1)	(-216,1)	(148,2)	(42,1)	(-278,1)	(0,1)	(-188,2)	(14,13)	(-40,6)	(70,1)	(6,6)	
L1D -41>	(46,1)	(-216,1)	(-240,1)	(28,1)	(6,1)	(1,1)	(33,2)	(119,90)	(25,35)	(154,3)	(38,8)	(39,8)	(55,3)	(36,1)	(131,1)	(2,3)	
L1D -40>	(-30,8)	(20,5)	(-38,1)	(0,3)	(-202,52)	(42,5)	(-152,71)	(-2,54)	(15,7)	(-5,74)	(-16,11)	(-194,8)	(-196,13)	(-60,17)	(-78,4)	(34,68)	
L1D -39>	(41,74)	(42,3)	(-1,2)	(38,110)	(47,16)	(0,16)	(1,2)	(39,7)	(37,1)	(-20,105)	(46,1)	(50,34)	(3,1)	(2,2)	(29,1)	(6,2)	
L1D -38>	(-62,21)	(-86,67)	(0,5)	(-350,77)	(-66,79)	(-148,72)	(-54,1)	(47,1)	(36,38)	(-2,1)	(1,92)	(14,85)	(-18,38)	(37,6)	(38,9)	(-228,2)	
L1D -37>	(8,9)	(37,10)	(2,49)	(19,3)	(-1,5)	(429,1)	(0,2)	(12,8)	(3,4)	(196,26)	(-13,4)	(17,2)	(4,27)	(6,25)	(1,12)	(-20,85)	
L1D -36>	(48,30)	(38,23)	(-67,29)	(8,16)	(66,26)	(0,8)	(4,74)	(-290,20)	(42,1)	(36,14)	(56,16)	(-64,0)	(-72,4)	(2,100)	(-8,1)	(6,58)	
L1D -35>	(0,3)	(1,18)	(-171,45)	(37,1)	(-81,22)	(35,26)	(6,1)	(-45,39)	(-136,10)	(-82,68)	(-1,5)	(36,0)	(42,0)	(-78,5)	(-80,30)	(-35,10)	
L1D -34>	(38,4)	(44,1)	(-92,56)	(4,33)	(36,82)	(6,27)	(-2,12)	(-106,5)	(-234,56)	(2,84)	(41,2)	(35,0)	(14,0)	(-296,0)	(-316,1)	(26,2)	
L1D -33>	(-216,3)	(46,43)	(26,2)	(2,6)	(28,10)	(19,73)	(10,5)	(30,3)	(38,5)	(0,24)	(180,17)	(33,31)	(50,5)	(4,3)	(47,3)	(20,5)	
L1D -32>	(36,108)	(58,62)	(-8,10)	(14,53)	(-66,54)	(230,28)	(-2,10)	(6,10)	(2,25)	(84,6)	(-240,36)	(264,21)	(1,2)	(4,44)	(10,51)	(-86,8)	
L1D -31>	(417,25)	(18,9)	(-54,10)	(-14,108)	(9,10)	(-4,6)	(-1,44)	(-6,39)	(-3,5)	(4,18)	(-268,1)	(-182,6)	(5,8)	(-23,12)	(11,7)	(0,31)	
L1D -30>	(3,5)	(-268,5)	(124,99)	(4,23)	(-30,12)	(46,21)	(-8,26)	(-140,12)	(2,15)	(-126,68)	(112,90)	(362,100)	(6,5)	(-62,31)	(250,7)	(-38,100)	
L1D -29>	(31,76)	(0,4)	(36,1)	(26,2)	(3,1)	(2,0)	(-267,0)	(410,0)	(-240,0)	(17,59)	(-6,0)	(4,0)	(1,0)	(43,1)	(22,0)	(29,0)	
L1D -28>	(238,19)	(0,108)	(8,2)	(-74,23)	(10,2)	(160,8)	(4,57)	(75,6)	(25,2)	(28,20)	(18,4)	(242,2)	(31,1)	(34,49)	(2,118)	(-56,39)	
L1D -27>	(97,124)	(3,13)	(1,23)	(28,1)	(-1,7)	(40,23)	(0,6)	(114,0)	(27,25)	(24,0)	(7,1)	(22,0)	(33,0)	(-31,0)	(-10,0)	(-28,0)	
L1D -26>	(6,9)	(33,28)	(4,13)	(19,5)	(26,4)	(-13,5)	(-64,11)	(45,6)	(-96,78)	(-52,63)	(-66,7)	(-118,4)	(70,6)	(-192,80)	(25,1)	(1,2)	
L1D -25>	(13,49)	(1,112)	(-16,65)	(25,21)	(41,37)	(4,5)	(39,14)	(19,1)	(9,7)	(26,30)	(0,2)	(5,1)	(18,5)	(77,2)	(21,1)	(8,8)	
L1D -24>	(18,6)	(140,117)	(4,16)	(122,11)	(2,5)	(-80,25)	(338,11)	(8,1)	(9,48)	(3,73)	(12,3)	(-170,7)	(0,11)	(-258,100)	(1,16)	(16,6)	
L1D -23>	(-52,17)	(18,84)	(22,1)	(182,15)	(3,8)	(96,8)	(290,9)	(0,15)	(-5,34)	(-39,18)	(163,12)	(392,11)	(2,10)	(25,84)	(390,23)	(156,10)	
L1D -22>	(96,9)	(-1,2)	(38,65)	(1,2)	(25,2)	(254,60)	(0,5)	(250,7)	(-68,3)	(-6,1)	(326,57)	(126,2)	(104,9)	(234,1)	(-5,3)	(86,1)	
L1D -21>	(14,2)	(13,45)	(8,60)	(-78,11)	(5,96)	(-2,1)	(6,8)	(21,1)	(144,1)	(156,2)	(-4,11)	(1,10)	(18,12)	(-11,1)	(-1,2)	(312,8)	
L1D -20>	(5,10)	(289,20)	(18,61)	(162,12)	(229,41)	(22,64)	(20,21)	(-1,34)	(155,8)	(17,44)	(311,31)	(0,22)	(23,4)	(14,7)	(143,13)	(16,38)	
L1D -19>	(-7,9)	(2,8)	(10,20)	(6,82)	(-9,117)	(152,25)	(3,1)	(19,4)	(-4,49)	(-12,1)	(8,9)	(17,1)	(1,5)	(18,8)	(-1,6)	(176,7)	
L1D -18>	(66,76)	(-308,110)	(-90,111)	(12,33)	(-63,111)	(-1,9)	(22,13)	(26,1)	(-252,111)	(-3,32)	(54,102)	(60,66)	(1,21)	(15,85)	(6,12)	(2,22)	
L1D -17>	(48,98)	(5,13)	(0,12)	(15,16)	(-1,15)	(2,24)	(16,94)	(7,9)	(1,117)	(-91,12)	(30,5)	(17,5)	(12,20)	(-7,15)	(6,1)	(4,3)	
L1D -16>	(7,86)	(2,11)	(276,67)	(-32,12)	(98,10)	(16,39)	(36,86)	(-83,10)	(54,6)	(17,1)	(9,40)	(8,34)	(30,79)	(44,6)	(64,77)	(-44,7)	
L1D -15>	(13,7)	(31,11)	(12,9)	(10,1)	(5,3)	(17,8)	(18,43)	(8,24)	(1,3)	(-1,22)	(41,1)	(26,7)	(-33,20)	(6,90)	(-5,10)	(9,61)	
L1D -14>	(18,1)	(8,6)	(17,5)	(-142,3)	(16,29)	(9,5)	(-88,4)	(0,4)	(100,7)	(-204,5)	(-5,55)	(66,8)	(218,62)	(-96,71)	(14,16)	(-33,9)	
L1D -13>	(-6,2)	(-8,88)	(4,4)	(-12,28)	(12,8)	(14,1)	(-7,7)	(8,1)	(-5,3)	(0,1)	(7,3)	(-10,4)	(1,8)	(-20,1)	(11,5)	(13,2)	
L1D -12>	(-84,14)	(-268,3)	(-8,34)	(27,6)	(338,12)	(9,60)	(-234,29)	(-30,34)	(12,11)	(-7,73)	(-130,34)	(-12,13)	(-82,31)	(18,19)	(5,3)	(-46,29)	
L1D -11>	(11,3)	(-1,3)	(-9,27)	(16,1)	(17,7)	(10,4)	(19,5)	(-4,6)	(0,20)	(-5,28)	(-7,87)	(12,1)	(1,10)	(9,14)	(8,12)	(13,15)	
L1D -10>	(-156,30)	(-98,8)	(14,54)	(106,32)	(-46,8)	(28,13)	(1,7)	(7,6)	(117,8)	(0,33)	(-6,2)	(-5,117)	(10,7)	(16,3)	(-52,9)	(4,1)	
L1D -9>	(13,1)	(6,6)	(-6,34)	(-7,13)	(1,8)	(18,15)	(0,12)	(9,102)	(8,9)	(4,15)	(3,4)	(-1,6)	(-11,6)	(17,13)	(12,69)	(-16,4)	
L1D -8>	(185,29)	(-8,74)	(-32,62)	(-20,57)	(-2,61)	(-48,32)	(14,122)	(-14,1)	(-39,44)	(-4,11)	(15,51)	(205,52)	(2,21)	(23,39)	(177,19)	(5,27)	
L1D -7>	(1,90)	(0,1)	(7,4)	(53,0)	(-26,1)	(-9,1)	(-13,0)	(-34,0)	(89,0)	(15,3)	(22,1)	(-6,0)	(176,0)	(-126,0)	(-36,0)	(6,1)	
L1D -6>	(13,25)	(-3,2)	(6,45)	(8,8)	(153,1)	(12,12)	(33,2)	(15,1)	(3,28)	(-2,51)	(265,0)	(28,13)	(1,71)	(160,0)	(-114,8)	(24,1)	
L1D -5>	(14,12)	(18,5)	(-3,17)	(17,24)	(138,17)	(16,107)	(12,12)	(5,66)	(6,12)	(-1,11)	(2,1)	(19,18)	(8,13)	(-28,17)	(1,35)	(-103,16)	
L1D -4>	(-1,1)	(-99,0)	(103,0)	(26,0)	(7,2)	(-3,2)	(0,6)	(24,2)	(4,101)	(1,1)	(-5,0)	(-168,0)	(174,0)	(3,1)	(341,0)	(8,0)	
L1D -3>	(0,59)	(3,58)	(-4,16)	(-132,1)	(-9,30)	(1,77)	(4,31)	(22,7)	(-342,3)	(-7,14)	(2,13)	(-2,6)	(174,7)	(-1,7)	(-5,7)	(-170,4)	
L1D -2>	(-39,54)	(-4,0)	(-36,2)	(3,0)	(-11,1)	(5,0)	(106,0)	(1,1)	(-148,0)	(-144,0)	(0,4)	(4,0)	(-1,1)	(13,0)	(2,91)	(-226,0)	
L1D -1>	(174,2)	(1,72)	(2,2)	(-27,1)	(172,3)	(4,5)	(3,2)	(271,3)	(-16,1)	(0,30)	(-1,17)	(-171,6)	(-170,2)	(173,5)	(5,1)	(-2,1)	
L1D 0>	(306,1)	(97,1)	(0,125)	(-28,1)	(9,1)	(5,1)	(-1,3)	(-9,1)	(1,20)	(4,3)	(-2,8)	(-17,1)	(28,5)	(-5,1)	(2,1)	(3,1)	
L1D 1>	(3,8)	(9,1)	(1,103)	(-6,1)	(13,3)	(2,21)	(-32,1)	(-1,5)	(0,11)	(5,4)	(4,3)	(-3,1)	(20,1)	(-7,0)	(-17,0)	(-9,2)	
L1D 2>	(-32,1)	(-37,1)	(2,79)	(1,23)	(6,9)	(4,37)	(-38,1)	(-2,8)	(-47,1)	(-6,14)	(-3,1)	(-5,2)	(0,45)	(-34,2)	(3,1)	(-36,3)	
L1D 3>	(4,0)	(0,11)	(2,11)	(-3,5)	(3,3)	(-41,1)	(-7,64)	(1,28)	(-9,1)	(-12,4)	(114,0)	(19,2)	(6,1)	(-2,2)	(11,1)	(-5,1)	
L1D 4>	(-36,5)	(-30,1)	(-32,1)	(-3,3)	(-1,1)	(0,10)	(12,1)	(-4,102)	(1,5)	(-16,1)	(6,13)	(2,121)	(-9,1)	(4,85)	(-34,2)	(-191,1)	
L1D 5>	(2,3)	(85,2)	(-5,52)	(0,27)	(7,2)	(48,1)	(-2,1)	(13,20)	(-3,20)	(9,16)	(-1,2)	(12,2)	(477,1)	(6,5)	(18,14)	(1,124)	
L1D 6>	(30,8)	(1,12)	(4,51)	(173,1)	(-6,78)	(0,11)	(10,1)	(-3,8)	(6,52)	(27,1)	(12,2)	(-25,1)	(-8,3)	(2,118)	(-22,2)	(-39,1)	
L1D 7>	(-7,20)	(0,91)	(1,29)	(9,14)	(-42,8)	(7,24)	(-6,17)	(-4,11)	(36,4)	(-21,1)	(-305,1)	(-33,1)	(2,31)	(-16,44)	(-1,28)	(3,4)	
L1D 8>	(1,28)	(12,7)	(10,18)	(4,70)	(-9,6)	(94,12)	(-10,38)	(194,28)	(6,34)	(-80,23)	(158,27)	(-19,60)	(9,46)	(-3,7)	(2,26)	(292,1)	
L1D 9>	(-14,17)	(13,8)	(-11,6)	(8,80)	(-5,18)	(-1,8)	(-18,37)	(18,40)	(-9,73)	(1,56)	(-8,23)	(-42,1)	(9,9)	(-3,6)	(12,29)	(-7,27)	
L1D 10>	(-156,66)	(4,5)	(-72,57)	(-14,10)	(6,47)	(8,19)	(1,1)	(-8,8)	(2,5)	(-194,11)	(0,35)	(-12,17)	(-6,6)	(-19,95)	(-84,13)	(-18,28)	
L1D 11>	(-20,105)	(1,36)	(-4,4)	(-7,59)	(-6,1)	(-3,27)	(-12,4)	(26,2)	(-2,25)	(133,45)	(-21,16)	(0,10)	(-13,5)	(-1,7)	(123,5)	(-10,15)	
L1D 12>	(16,9)	(-19,32)	(133,3)	(26,1)	(-2,13)	(-3,82)	(-9,15)	(0,5)	(-24,15)	(76,10)	(-20,34)	(-7,8)	(4,1)	(144,7)	(-21,4)	(1,8)	
L1D 13>	(-11,5)	(1,123)	(-13,3)	(-20,97)	(-5,22)	(8,19)	(28,1)	(2,84)	(-9,1)	(-4,27)	(-1,10)	(-16,6)	(7,13)	(-2,4)	(-10,1)	(-21,3)	
L1D 14>	(6,16)	(-3,1)	(-36,31)	(-156,38)	(26,8)	(-40,33)	(176,31)	(-50,11)	(-7,37)	(-124,49)	(14,122)	(-30,53)	(-314,49)	(-278,45)	(12,49)	(78,54)	
L1D 15>	(-127,67)	(-10,1)	(-3,73)	(47,53)	(81,37)	(65,56)	(67,50)	(83,35)	(69,58)	(75,46)	(-9,12)	(0,77)	(-6,42)	(2,13)	(-23,7)	(-5,19)	
L1D 16>	(-88,20)	(-15,6)	(7,2)	(-34,21)	(-96,20)	(0,7)	(-2,7)	(-22,3)	(-4,19)	(-11,2)	(-48,123)	(214,1)	(-5,2)	(16,126)	(-12,1)	(1,25)	
L1D 17>	(-6,5)	(-20,7)	(145,4)	(-5,5)	(126,13)	(-3,14)	(19,40)	(-11,76)	(0,1)	(80,4)	(138,13)	(-18,11)	(31,27)	(78,13)	(142,11)	(1,13)	
L1D 18>	(72,28)	(-19,14)	(-29,28)	(-88,35)	(-58,15)	(8,16)	(-7,19)	(-9,109)	(6,1)	(372,8)	(374,9)	(202,35)	(-12,46)	(70,28)	(78,11)	(-92,23)	
L1D 19>	(-4,72)	(-16,1)	(-6,1)	(204,1)	(-303,52)	(-14,1)	(0,22)	(1,13)	(-235,9)	(-2,1)	(-18,3)	(-17,5)	(-1,14)	(-28,6)	(7,3)	(-19,1)	
L1D 20>	(-26,12)	(138,39)	(-22,64)	(4,41)	(-24,12)	(-19,9)	(-12,38)	(-20,23)	(127,3)	(-56,4)	(-4,2)	(0,11)	(-6,5)	(-15,27)	(-2,7)	(304,1)	
L1D 21>	(7,81)	(-21,64)	(-19,32)	(-1,24)	(-39,22)	(-57,1)	(-99,74)	(11,37)	(-12,6)	(-6,14)	(-23,38)	(-8,16)	(-27,2)	(-3,26)	(-18,63)	(-17,27)	
L1D 22>	(267,22)	(242,91)	(-23,118)	(367,53)	(-5,11)	(159,71)	(140,15)	(146,29)	(-290,21)	(137,28)	(-18,6)	(369,68)	(-16,5)	(133,22)	(-108,24)	(73,21)	
L1D 23>	(48,1)	(-16,1)	(45,1)	(168,0)	(46,0)	(133,0)	(-23,17)	(-358,0)	(-295,0)	(-9,73)	(-77,1)	(-18,0)	(-1,1)	(0,7)	(4,0)	(-28,0)	
L1D 24>	(-52,23)	(32,4)	(4,4)	(158,113)	(-9,12)	(146,14)	(290,113)	(29,6)	(-74,4)	(28,38)	(0,25)	(72,53)	(70,12)	(98,76)	(-26,17)	(-24,11)	
L1D 25>	(-64,49)	(1,2)	(49,3)	(16,1)	(52,3)	(-27,39)	(-25,13)	(-77,57)	(92,2)	(-17,1)	(-6,79)	(-8,21)	(94,1)	(-19,1)	(14,2)	(-5,1)	
L1D 26>	(-24,3)	(-338,1)	(-154,113)	(26,6)	(-108,12)	(42,8)	(-40,21)	(52,32)	(-28,5)	(-44,5)	(-272,10)	(2,18)	(6,5)	(-228,96)	(31,9)	(-1,116)	
L1D 27>	(-23,31)	(-39,1)	(-9,82)	(-11,2)	(-33,1)	(0,2)	(54,2)	(2,3)	(-5,2)	(70,1)	(-82,3)	(4,2)	(-17,1)	(56,1)	(9,4)	(-27,15)	
L1D 28>	(236,65)	(58,65)	(184,48)	(28,1)	(66,61)	(-2,54)	(-28,80)	(-18,65)	(0,47)	(2,15)	(-264,8)	(-80,8)	(-54,13)	(182,8)	(-14,8)	(-24,67)	
L1D 29>	(-1,6)	(2,10)	(-29,4)	(-27,6)	(-28,108)	(4,1)	(-35,50)	(57,1)	(-19,23)	(10,4)	(0,9)	(58,3)	(8,1)	(-12,21)	(-63,40)	(1,10)	
L1D 30>	(66,82)	(0,1)	(-28,64)	(12,1)	(-24,1)	(290,3)	(-30,1)	(232,2)	(-2,1)	(-136,3)	(-170,2)	(-60,47)	(260,1)	(-40,8)	(145,3)	(-66,2)	
L1D 31>	(-242,88)	(-37,4)	(-41,1)	(44,2)	(-3,2)	(61,1)	(-43,10)	(-185,103)	(-61,1)	(0,1)	(7,10)	(62,1)	(-82,1)	(-322,1)	(-303,5)	(9,1)	
L1D 32>	(-28,58)	(-56,1)	(138,2)	(-24,3)	(18,124)	(70,9)	(-118,2)	(198,1)	(-228,7)	(-30,10)	(-218,4)	(20,3)	(-292,2)	(-154,121)	(-16,30)	(-272,7)	
L1D 33>	(0,49)	(8,4)	(269,7)	(-27,7)	(263,3)	(-7,109)	(9,100)	(-33,58)	(265,3)	(-31,12)	(211,8)	(2,23)	(-1,2)	(80,3)	(245,10)	(175,7)	
L1D 34>	(-28,56)	(238,113)	(-20,3)	(-32,15)	(38,2)	(10,95)	(68,1)	(42,5)	(-350,17)	(-6,2)	(-312,12)	(-12,106)	(50,3)	(-8,6)	(41,99)	(-30,10)	
L1D 35>	(0,2)	(-116,2)	(-20,1)	(-254,0)	(70,0)	(-235,2)	(4,0)	(1,1)	(69,0)	(-117,8)	(-171,104)	(-14,0)	(-115,4)	(30,0)	(7,15)	(-25,0)	
L1D 36>	(-38,79)	(-34,64)	(-30,14)	(-36,25)	(-88,100)	(2,25)	(-32,43)	(-28,53)	(-60,86)	(46,5)	(-256,7)	(-62,72)	(228,46)	(-43,3)	(56,4)	(-7,10)	
L1D 37>	(-38,7)	(-31,3)	(-3,20)	(3,5)	(-20,5)	(38,16)	(-10,4)	(-4,7)	(0,26)	(-33,3)	(159,98)	(-7,7)	(-43,1)	(-37,26)	(4,5)	(-1,18)	
L1D 38>	(48,41)	(-102,4)	(9,82)	(-104,13)	(-322,38)	(-6,5)	(-38,0)	(16,42)	(136,45)	(0,25)	(1,3)	(-50,44)	(-26,2)	(-28,4)	(-2,12)	(-24,11)	
L1D 39>	(78,1)	(-21,46)	(53,1)	(-39,13)	(-14,16)	(11,123)	(-10,1)	(-2,3)	(-166,16)	(-99,30)	(2,3)	(-30,15)	(-8,1)	(35,1)	(-1,5)	(226,1)	
L1D 40>	(-26,2)	(-25,31)	(190,3)	(386,23)	(-43,1)	(-24,1)	(250,16)	(-224,1)	(112,1)	(80,2)	(-228,84)	(0,1)	(-240,2)	(172,1)	(142,4)	(-278,2)	
L1D 41>	(-1,0)	(7,7)	(81,0)	(-346,75)	(-2,74)	(6,0)	(5,0)	(-40,0)	(1,0)	(31,0)	(-41,2)	(14,14)	(2,1)	(53,0)	(0,1)	(386,0)	
L1D 42>	(248,5)	(-38,13)	(-96,17)	(-16,15)	(-278,8)	(-42,1)	(-262,7)	(58,13)	(106,93)	(8,7)	(-24,7)	(-188,4)	(40,49)	(-280,2)	(108,7)	(-12,51)	
L1D 43>	(5,27)	(-44,9)	(0,3)	(-1,8)	(2,18)	(-41,36)	(-42,31)	(-46,89)	(-49,3)	(11,34)	(-43,20)	(86,6)	(85,5)	(-14,9)	(12,29)	(1,12)	
L1D 44>	(11,6)	(12,2)	(-2,1)	(-49,4)	(-62,38)	(1,12)	(-96,6)	(-122,87)	(128,115)	(-272,2)	(51,1)	(-240,3)	(-346,2)	(-14,8)	(30,1)	(204,127)	
L1D 45>	(89,1)	(10,1)	(-1,41)	(27,2)	(90,1)	(-26,0)	(4,0)	(-45,1)	(-9,73)	(-42,0)	(-31,20)	(-44,10)	(0,0)	(84,1)	(48,2)	(11,22)	
L1D 46>	(-172,11)	(-45,17)	(-280,69)	(-32,4)	(-58,9)	(47,3)	(6,5)	(-50,2)	(81,124)	(-31,30)	(98,16)	(4,2)	(-64,2)	(-54,2)	(-82,1)	(-13,1)	
L1D 47>	(-49,118)	(-1,6)	(-46,3)	(-48,10)	(-97,1)	(-4,32)	(65,1)	(29,1)	(1,1)	(-8,16)	(-50,15)	(-14,6)	(0,1)	(-37,13)	(-47,1)	(93,0)	
L1D 48>	(194,78)	(-58,24)	(-118,58)	(-30,81)	(190,7)	(232,7)	(-242,13)	(-298,38)	(0,10)	(48,85)	(-168,85)	(28,9)	(-24,12)	(-110,5)	(88,14)	(-66,69)	
L1D 49>	(98,6)	(54,1)	(100,1)	(5,1)	(-1,1)	(-42,2)	(-53,7)	(-6,1)	(-137,76)	(95,28)	(4,3)	(-49,9)	(93,7)	(0,1)	(2,1)	(97,3)	
L1D 50>	(2,1)	(-284,1)	(0,1)	(-186,1)	(-162,4)	(99,2)	(-2,1)	(-174,69)	(26,1)	(-110,2)	(-12,1)	(-50,1)	(21,7)	(120,10)	(-10,99)	(-188,2)	
L1D 51>	(-5,25)	(5,1)	(101,1)	(-52,22)	(-43,5)	(2,1)	(102,0)	(-4,5)	(-149,5)	(-51,9)	(-1,0)	(-303,5)	(-59,0)	(-53,69)	(93,79)	(104,34)	
L1D 52>	(4,6)	(-10,7)	(-6,32)	(-54,4)	(-174,7)	(103,11)	(-44,82)	(-51,11)	(38,2)	(24,41)	(-164,5)	(2,41)	(226,12)	(104,120)	(-52,2)	(-84,9)	
L1D 53>	(1,25)	(-32,3)	(4,33)	(0,29)	(170,48)	(-42,5)	(-1,4)	(2,25)	(-25,3)	(-53,35)	(106,41)	(-34,3)	(105,16)	(108,6)	(-146,13)	(-4,1)	
L1D 54>	(-202,1)	(-6,0)	(-2,6)	(-218,1)	(10,7)	(-4,6)	(-158,92)	(2,1)	(16,0)	(-220,2)	(8,1)	(152,3)	(-8,15)	(-54,1)	(108,0)	(-194,1)	
L1D 55>	(-1,61)	(-11,9)	(1,7)	(-2,12)	(5,3)	(110,9)	(0,30)	(3,11)	(-55,8)	(7,2)	(-14,77)	(109,5)	(-71,24)	(-26,32)	(-274,0)	(-49,6)	
L1D 56>	(-55,1)	(-76,0)	(-54,2)	(-16,1)	(-40,51)	(-26,0)	(6,0)	(152,1)	(-22,0)	(-312,0)	(-186,64)	(-118,1)	(-2,6)	(60,1)	(-8,0)	(-11,7)	
L1D 57>	(-57,82)	(-26,1)	(116,0)	(-7,0)	(171,0)	(-75,15)	(113,0)	(0,1)	(-5,0)	(114,2)	(6,0)	(4,0)	(-1,19)	(17,0)	(-27,0)	(1,0)	
L1D 58>	(48,1)	(-182,89)	(-20,1)	(136,6)	(-242,1)	(-74,1)	(219,1)	(-170,1)	(-57,1)	(-208,1)	(115,1)	(-68,5)	(-322,1)	(36,88)	(-270,3)	(-158,1)	
L1D 59>	(-5,18)	(1,10)	(-59,16)	(67,9)	(33,4)	(-62,5)	(0,8)	(-63,8)	(3,1)	(-29,48)	(-268,53)	(-66,101)	(120,4)	(117,6)	(-56,25)	(118,17)	
L1D 60>	(0,4)	(39,45)	(-66,92)	(-60,53)	(38,27)	(-61,23)	(-48,38)	(-38,34)	(4,60)	(14,28)	(26,6)	(18,26)	(6,17)	(-24,91)	(-2,1)	(-186,5)	
L1D 61>	(38,56)	(-60,104)	(39,67)	(-183,13)	(18,7)	(0,2)	(124,1)	(-27,3)	(1,2)	(-61,4)	(-58,1)	(-22,3)	(-23,2)	(122,2)	(50,1)	(37,25)	
L1D 62>	(186,94)	(37,5)	(-96,2)	(-94,1)	(-118,2)	(196,38)	(-48,3)	(-58,2)	(-162,3)	(-49,4)	(-212,9)	(-67,2)	(-184,57)	(-154,1)	(-16,6)	(-114,3)	
L1D 63>	(-247,98)	(-63,13)	(-1,3)	(-275,1)	(0,2)	(15,0)	(-45,0)	(-44,0)	(64,0)	(-48,0)	(-29,0)	(5,0)	(1,0)	(1,0)	(1,0)	(1,0)	
L1D 64>	(-1,1)	(10,6)	(34,1)	(8,112)	(38,1)	(232,2)	(-70,14)	(48,106)	(-2,108)	(-69,5)	(-310,1)	(-74,1)	(-62,1)	(24,1)	(-212,105)	(-24,1)	
L1D 65>	(-66,9)	(-67,98)	(-219,82)	(-1,4)	(-97,14)	(-251,0)	(-55,11)	(-250,1)	(-28,0)	(1,0)	(1,0)	(1,0)	(1,0)	(1,0)	(1,0)	(1,0)	
L1D 66>	(226,60)	(-202,5)	(112,57)	(-58,45)	(-40,56)	(-18,47)	(-196,31)	(-92,68)	(-72,42)	(4,4)	(42,7)	(-138,54)	(-54,8)	(-224,1)	(24,44)	(-210,65)	
L1D 67>	(318,0)	(-69,61)	(-2,88)	(-68,0)	(136,0)	(6,1)	(3,0)	(5,0)	(134,0)	(133,0)	(46,0)	(-244,5)	(1,0)	(-57,12)	(4,0)	(-10,0)	
L1D 68>	(136,1)	(0,2)	(226,1)	(302,66)	(114,9)	(-76,1)	(118,6)	(-222,2)	(240,3)	(31,1)	(-74,59)	(-290,18)	(-182,0)	(-92,6)	(-62,1)	(102,1)	
[...]
L1D 485>	(4,4)	(0,3)	(-448,1)	(1,1)	(1,0)	(1,0)	(1,0)	(1,0)	(1,0)	(1,0)	(1,0)	(1,0)	(1,0)	(1,0)	(1,0)	(1,0)	
L1D 486>	(0,1)	(1,0)	(1,0)	(1,0)	(1,0)	(1,0)	(1,0)	(1,0)	(1,0)	(1,0)	(1,0)	(1,0)	(1,0)	(1,0)	(1,0)	(1,0)	
L1D 487>	(4,7)	(-256,1)	(3,3)	(1,0)	(1,0)	(1,0)	(1,0)	(1,0)	(1,0)	(1,0)	(1,0)	(1,0)	(1,0)	(1,0)	(1,0)	(1,0)	
L1D 488>	(5,1)	(1,1)	(1,0)	(1,0)	(1,0)	(1,0)	(1,0)	(1,0)	(1,0)	(1,0)	(1,0)	(1,0)	(1,0)	(1,0)	(1,0)	(1,0)	
L1D 489>	(4,1)	(1,0)	(1,0)	(1,0)	(1,0)	(1,0)	(1,0)	(1,0)	(1,0)	(1,0)	(1,0)	(1,0)	(1,0)	(1,0)	(1,0)	(1,0)	
L1D 490>	(-1,1)	(1,2)	(-490,1)	(0,2)	(1,0)	(1,0)	(1,0)	(1,0)	(1,0)	(1,0)	(1,0)	(1,0)	(1,0)	(1,0)	(1,0)	(1,0)	
L1D 491>	(4,1)	(1,0)	(1,0)	(1,0)	(1,0)	(1,0)	(1,0)	(1,0)	(1,0)	(1,0)	(1,0)	(1,0)	(1,0)	(1,0)	(1,0)	(1,0)	
L1D 492>	(0,1)	(-492,1)	(1,0)	(1,0)	(1,0)	(1,0)	(1,0)	(1,0)	(1,0)	(1,0)	(1,0)	(1,0)	(1,0)	(1,0)	(1,0)	(1,0)	
L1D 493>	(1,0)	(1,0)	(1,0)	(1,0)	(1,0)	(1,0)	(1,0)	(1,0)	(1,0)	(1,0)	(1,0)	(1,0)	(1,0)	(1,0)	(1,0)	(1,0)	
L1D 494>	(-144,1)	(1,2)	(0,1)	(1,0)	(1,0)	(1,0)	(1,0)	(1,0)	(1,0)	(1,0)	(1,0)	(1,0)	(1,0)	(1,0)	(1,0)	(1,0)	
L1D 495>	(0,2)	(4,1)	(-1,1)	(1,0)	(1,0)	(1,0)	(1,0)	(1,0)	(1,0)	(1,0)	(1,0)	(1,0)	(1,0)	(1,0)	(1,0)	(1,0)	
L1D 496>	(-222,1)	(1,0)	(1,0)	(1,0)	(1,0)	(1,0)	(1,0)	(1,0)	(1,0)	(1,0)	(1,0)	(1,0)	(1,0)	(1,0)	(1,0)	(1,0)	
L1D 497>	(4,3)	(1,0)	(1,0)	(1,0)	(1,0)	(1,0)	(1,0)	(1,0)	(1,0)	(1,0)	(1,0)	(1,0)	(1,0)	(1,0)	(1,0)	(1,0)	
L1D 498>	(4,1)	(0,1)	(1,0)	(1,0)	(1,0)	(1,0)	(1,0)	(1,0)	(1,0)	(1,0)	(1,0)	(1,0)	(1,0)	(1,0)	(1,0)	(1,0)	
L1D 499>	(0,1)	(1,0)	(1,0)	(1,0)	(1,0)	(1,0)	(1,0)	(1,0)	(1,0)	(1,0)	(1,0)	(1,0)	(1,0)	(1,0)	(1,0)	(1,0)	
L1D 500>	(5,1)	(4,1)	(1,0)	(1,0)	(1,0)	(1,0)	(1,0)	(1,0)	(1,0)	(1,0)	(1,0)	(1,0)	(1,0)	(1,0)	(1,0)	(1,0)	
L1D 501>	(-491,1)	(1,1)	(4,1)	(1,0)	(1,0)	(1,0)	(1,0)	(1,0)	(1,0)	(1,0)	(1,0)	(1,0)	(1,0)	(1,0)	(1,0)	(1,0)	
L1D 502>	(-10,1)	(-254,1)	(0,1)	(1,0)	(1,0)	(1,0)	(1,0)	(1,0)	(1,0)	(1,0)	(1,0)	(1,0)	(1,0)	(1,0)	(1,0)	(1,0)	
L1D 503>	(4,1)	(1,0)	(1,0)	(1,0)	(1,0)	(1,0)	(1,0)	(1,0)	(1,0)	(1,0)	(1,0)	(1,0)	(1,0)	(1,0)	(1,0)	(1,0)	
L1D 504>	(1,0)	(1,0)	(1,0)	(1,0)	(1,0)	(1,0)	(1,0)	(1,0)	(1,0)	(1,0)	(1,0)	(1,0)	(1,0)	(1,0)	(1,0)	(1,0)	
L1D 505>	(1,0)	(1,0)	(1,0)	(1,0)	(1,0)	(1,0)	(1,0)	(1,0)	(1,0)	(1,0)	(1,0)	(1,0)	(1,0)	(1,0)	(1,0)	(1,0)	
L1D 506>	(1,0)	(1,0)	(1,0)	(1,0)	(1,0)	(1,0)	(1,0)	(1,0)	(1,0)	(1,0)	(1,0)	(1,0)	(1,0)	(1,0)	(1,0)	(1,0)	
L1D 507>	(1,0)	(1,0)	(1,0)	(1,0)	(1,0)	(1,0)	(1,0)	(1,0)	(1,0)	(1,0)	(1,0)	(1,0)	(1,0)	(1,0)	(1,0)	(1,0)	
L1D 508>	(1,0)	(1,0)	(1,0)	(1,0)	(1,0)	(1,0)	(1,0)	(1,0)	(1,0)	(1,0)	(1,0)	(1,0)	(1,0)	(1,0)	(1,0)	(1,0)	
L1D 509>	(1,0)	(1,0)	(1,0)	(1,0)	(1,0)	(1,0)	(1,0)	(1,0)	(1,0)	(1,0)	(1,0)	(1,0)	(1,0)	(1,0)	(1,0)	(1,0)	
L1D 510>	(0,1)	(1,0)	(1,0)	(1,0)	(1,0)	(1,0)	(1,0)	(1,0)	(1,0)	(1,0)	(1,0)	(1,0)	(1,0)	(1,0)	(1,0)	(1,0)	
L1D 511>	(1,0)	(1,0)	(1,0)	(1,0)	(1,0)	(1,0)	(1,0)	(1,0)	(1,0)	(1,0)	(1,0)	(1,0)	(1,0)	(1,0)	(1,0)	(1,0)	

L2C -64>	(1,239)	(2,68)	(-1,8)	(24,1)	(0,3)	(-20,1)	(28,1)	(-36,1)	(-9,2)	(-21,1)	(22,2)	(-2,18)	(4,5)	(-3,10)	(3,18)	(-22,2)	
L2C -63>	(1,201)	(13,1)	(21,1)	(2,6)	(3,4)	(41,11)	(42,17)	(35,1)	(4,3)	(5,1)	(6,1)	(0,1)	(7,0)	(22,4)	(62,0)	(1,0)	
L2C -62>	(43,1)	(58,1)	(10,1)	(1,195)	(13,2)	(19,1)	(8,1)	(14,3)	(21,1)	(4,10)	(3,8)	(6,2)	(2,16)	(7,6)	(5,4)	(0,1)	
L2C -61>	(6,4)	(1,109)	(3,11)	(22,1)	(17,3)	(5,22)	(2,9)	(23,1)	(7,1)	(8,2)	(40,1)	(60,1)	(4,10)	(14,2)	(10,1)	(9,4)	
L2C -60>	(48,2)	(1,68)	(34,1)	(-2,2)	(4,4)	(17,1)	(57,2)	(2,6)	(46,1)	(12,2)	(11,1)	(-1,1)	(3,1)	(5,1)	(0,1)	(30,1)	
L2C -59>	(1,73)	(3,6)	(45,3)	(2,6)	(14,3)	(-1,1)	(15,6)	(23,3)	(7,1)	(12,1)	(44,1)	(5,3)	(43,3)	(9,1)	(19,1)	(4,1)	
L2C -58>	(1,51)	(11,1)	(44,2)	(14,4)	(42,1)	(3,3)	(48,1)	(59,1)	(7,11)	(5,4)	(2,4)	(13,2)	(34,1)	(4,1)	(-1,3)	(12,4)	
L2C -57>	(33,1)	(1,222)	(6,0)	(58,0)	(14,0)	(50,0)	(1,0)	(1,0)	(1,0)	(1,0)	(1,0)	(1,0)	(1,0)	(1,0)	(1,0)	(1,0)	
L2C -56>	(1,39)	(4,6)	(13,6)	(42,3)	(6,19)	(20,3)	(-1,4)	(21,4)	(50,1)	(-2,2)	(5,6)	(9,3)	(22,4)	(2,4)	(3,3)	(17,4)	
L2C -55>	(1,53)	(3,10)	(2,10)	(-1,14)	(54,1)	(26,10)	(-2,44)	(5,2)	(21,5)	(41,2)	(11,2)	(48,4)	(44,5)	(13,6)	(6,4)	(-5,3)	
L2C -54>	(49,5)	(26,35)	(1,46)	(2,14)	(3,8)	(27,2)	(55,2)	(10,1)	(52,2)	(-5,4)	(54,5)	(-7,6)	(22,8)	(51,4)	(4,10)	(45,2)	
L2C -53>	(1,75)	(33,12)	(-1,26)	(0,71)	(3,13)	(22,6)	(29,2)	(8,3)	(26,23)	(55,5)	(21,17)	(45,3)	(27,7)	(2,5)	(34,1)	(14,3)	
L2C -52>	(1,168)	(24,7)	(13,15)	(3,3)	(22,61)	(51,12)	(36,1)	(-1,9)	(26,38)	(0,16)	(27,4)	(2,12)	(52,9)	(50,7)	(54,2)	(28,2)	
L2C -51>	(1,136)	(15,109)	(16,18)	(29,48)	(-1,14)	(6,23)	(0,45)	(7,222)	(2,12)	(14,22)	(51,17)	(5,1)	(22,16)	(4,3)	(52,24)	(48,4)	
L2C -50>	(1,231)	(28,32)	(-1,172)	(31,1)	(-2,47)	(52,24)	(8,36)	(7,61)	(15,79)	(6,23)	(42,12)	(44,37)	(22,33)	(21,48)	(14,34)	(29,24)	
L2C -49>	(1,126)	(-1,50)	(7,21)	(14,78)	(43,48)	(50,20)	(9,1)	(20,27)	(21,34)	(10,6)	(44,37)	(15,17)	(28,14)	(-6,6)	(35,6)	(6,49)	
L2C -48>	(-1,40)	(31,1)	(5,5)	(49,6)	(48,6)	(1,53)	(13,16)	(-2,23)	(25,7)	(22,21)	(20,27)	(8,6)	(19,14)	(33,7)	(43,91)	(9,6)	
L2C -47>	(1,231)	(-1,17)	(44,228)	(23,47)	(18,9)	(22,55)	(-2,14)	(0,15)	(13,3)	(46,3)	(10,1)	(4,4)	(2,9)	(48,4)	(42,3)	(43,244)	
L2C -46>	(44,223)	(0,45)	(23,21)	(38,2)	(22,108)	(1,98)	(-1,15)	(24,2)	(2,8)	(9,5)	(41,1)	(42,7)	(43,135)	(47,5)	(3,7)	(21,16)	
L2C -45>	(44,36)	(43,144)	(47,4)	(21,6)	(1,88)	(22,86)	(23,5)	(32,1)	(-1,11)	(42,5)	(46,6)	(20,1)	(0,2)	(-2,1)	(2,2)	(9,2)	
L2C -44>	(22,131)	(2,4)	(42,7)	(1,125)	(21,16)	(43,161)	(24,1)	(45,19)	(-2,1)	(44,17)	(25,3)	(-1,16)	(23,32)	(47,2)	(20,0)	(0,3)	
L2C -43>	(42,49)	(21,114)	(22,218)	(1,121)	(43,99)	(0,35)	(44,101)	(24,3)	(25,2)	(23,46)	(-1,21)	(-2,1)	(20,1)	(3,1)	(45,1)	(5,0)	
L2C -42>	(1,121)	(21,221)	(43,29)	(3,1)	(20,22)	(23,4)	(-1,54)	(24,1)	(0,13)	(42,3)	(22,52)	(44,10)	(-9,1)	(41,2)	(15,1)	(13,1)	
L2C -41>	(-1,24)	(-2,88)	(1,161)	(43,17)	(-3,4)	(2,4)	(22,4)	(20,74)	(40,2)	(4,3)	(19,35)	(21,4)	(42,32)	(0,2)	(47,1)	(55,1)	
L2C -40>	(2,11)	(-2,30)	(-10,3)	(1,85)	(41,29)	(-3,145)	(20,15)	(12,3)	(0,3)	(33,1)	(-1,20)	(39,1)	(42,9)	(38,4)	(19,73)	(18,52)	
L2C -39>	(1,176)	(34,2)	(21,1)	(13,1)	(-4,5)	(10,0)	(2,0)	(40,2)	(39,0)	(-11,0)	(18,3)	(17,0)	(14,0)	(52,0)	(47,0)	(-2,0)	
L2C -38>	(4,7)	(1,85)	(15,1)	(16,25)	(34,4)	(39,11)	(-3,4)	(2,23)	(38,28)	(8,24)	(43,8)	(30,6)	(18,6)	(3,8)	(42,19)	(40,8)	
L2C -37>	(-1,22)	(21,1)	(1,110)	(-2,7)	(39,4)	(27,4)	(37,23)	(16,50)	(-7,14)	(40,13)	(7,11)	(15,14)	(2,14)	(17,6)	(41,10)	(42,6)	
L2C -36>	(1,143)	(22,21)	(-6,9)	(-1,58)	(-21,166)	(-19,40)	(50,25)	(8,11)	(3,13)	(-8,48)	(15,14)	(7,33)	(-14,6)	(41,1)	(2,55)	(-7,22)	
L2C -35>	(-15,16)	(1,122)	(36,15)	(-9,24)	(-22,50)	(-2,42)	(-21,22)	(-3,6)	(2,41)	(11,1)	(14,32)	(7,54)	(-1,103)	(-20,19)	(-19,8)	(30,10)	
L2C -34>	(7,26)	(2,42)	(1,75)	(20,16)	(24,1)	(-23,22)	(-22,13)	(-3,11)	(0,10)	(-1,74)	(-21,32)	(42,7)	(35,18)	(12,17)	(33,8)	(-2,54)	
L2C -33>	(1,65)	(3,38)	(25,5)	(-7,58)	(2,38)	(19,17)	(20,10)	(-15,43)	(6,5)	(12,7)	(35,5)	(47,13)	(7,4)	(-2,7)	(-5,1)	(33,4)	
L2C -32>	(1,92)	(2,72)	(-21,27)	(3,28)	(40,5)	(33,32)	(42,1)	(18,9)	(25,6)	(24,6)	(12,6)	(-6,4)	(11,5)	(-1,13)	(31,6)	(27,3)	
L2C -31>	(1,139)	(3,35)	(7,9)	(-1,17)	(2,50)	(18,6)	(-4,5)	(14,20)	(32,8)	(13,5)	(40,6)	(4,3)	(10,7)	(-19,4)	(9,1)	(-2,8)	
L2C -30>	(1,238)	(2,37)	(8,3)	(5,5)	(16,69)	(-20,17)	(50,10)	(-13,3)	(9,7)	(20,4)	(-2,10)	(-21,8)	(10,5)	(14,41)	(-7,1)	(21,2)	
L2C -29>	(1,199)	(23,10)	(-20,18)	(-21,119)	(7,19)	(31,1)	(3,15)	(-1,100)	(2,40)	(20,3)	(8,14)	(21,10)	(30,7)	(-14,10)	(15,48)	(13,17)	
L2C -28>	(14,60)	(20,19)	(21,220)	(1,37)	(30,3)	(-1,47)	(15,29)	(35,12)	(-22,27)	(2,16)	(7,31)	(-21,7)	(-13,6)	(6,15)	(-2,5)	(4,1)	
L2C -27>	(-21,45)	(2,65)	(1,169)	(21,45)	(7,43)	(-1,100)	(-8,123)	(5,34)	(6,178)	(-3,1)	(18,8)	(13,45)	(28,19)	(0,55)	(3,37)	(27,18)	
L2C -26>	(20,36)	(21,70)	(3,15)	(15,1)	(11,15)	(26,16)	(27,45)	(-2,27)	(1,182)	(-9,11)	(2,26)	(-1,81)	(28,9)	(12,23)	(14,25)	(-7,13)	
L2C -25>	(-21,148)	(13,9)	(1,159)	(22,88)	(-1,14)	(2,32)	(44,25)	(0,62)	(21,61)	(3,12)	(-8,1)	(-22,52)	(25,19)	(26,7)	(43,165)	(-20,4)	
L2C -24>	(21,96)	(22,115)	(43,119)	(20,4)	(-21,130)	(2,9)	(-1,16)	(1,164)	(-22,58)	(25,15)	(52,1)	(42,45)	(0,26)	(44,6)	(-20,2)	(-7,2)	
L2C -23>	(2,20)	(1,235)	(-1,32)	(-21,59)	(22,57)	(21,75)	(24,42)	(-22,77)	(43,86)	(0,26)	(-2,8)	(44,26)	(-7,1)	(20,4)	(45,13)	(42,31)	
L2C -22>	(-21,81)	(21,46)	(-22,14)	(22,69)	(43,73)	(2,9)	(0,13)	(23,27)	(1,170)	(5,1)	(42,5)	(44,18)	(-1,8)	(-20,6)	(47,1)	(25,5)	
L2C -21>	(1,77)	(42,33)	(44,6)	(-21,37)	(43,99)	(20,35)	(-1,73)	(22,220)	(21,76)	(-22,96)	(-2,5)	(0,20)	(24,1)	(23,17)	(-23,6)	(-20,2)	
L2C -20>	(42,21)	(-1,56)	(1,129)	(21,11)	(-22,14)	(-2,31)	(40,0)	(22,21)	(19,1)	(-23,32)	(23,3)	(43,1)	(20,4)	(2,12)	(-21,18)	(41,3)	
L2C -19>	(-23,10)	(19,50)	(-3,29)	(-2,141)	(-1,10)	(41,18)	(-24,13)	(20,20)	(-4,4)	(-30,1)	(40,6)	(1,63)	(-6,7)	(3,9)	(2,19)	(-7,3)	
L2C -18>	(41,2)	(22,1)	(8,1)	(-3,13)	(1,224)	(-24,2)	(18,1)	(19,2)	(10,1)	(-2,1)	(0,1)	(-4,14)	(16,1)	(-22,2)	(40,6)	(33,1)	
L2C -17>	(1,205)	(3,8)	(2,25)	(-7,7)	(13,1)	(16,6)	(-2,67)	(23,7)	(-3,10)	(-14,2)	(18,60)	(19,26)	(4,4)	(22,3)	(-1,14)	(31,2)	
L2C -16>	(22,9)	(1,186)	(-1,24)	(2,68)	(-2,14)	(15,17)	(8,107)	(18,12)	(7,18)	(23,87)	(-5,50)	(-13,1)	(0,120)	(3,54)	(16,179)	(17,14)	
L2C -15>	(15,14)	(1,188)	(2,92)	(14,1)	(0,10)	(7,30)	(30,6)	(16,17)	(-1,39)	(3,16)	(6,17)	(9,27)	(29,12)	(8,19)	(-7,9)	(28,6)	
L2C -14>	(7,19)	(14,19)	(21,11)	(28,21)	(8,22)	(-15,172)	(-7,26)	(-12,29)	(1,50)	(6,22)	(26,1)	(-13,38)	(15,13)	(-6,6)	(-14,32)	(-1,18)	
L2C -13>	(2,13)	(12,11)	(15,32)	(14,29)	(1,75)	(-7,6)	(13,26)	(23,14)	(0,17)	(5,1)	(27,9)	(7,24)	(-1,161)	(28,9)	(-2,12)	(-8,6)	
L2C -12>	(1,51)	(6,21)	(-1,224)	(5,7)	(-2,49)	(-10,16)	(17,11)	(33,1)	(25,2)	(4,12)	(12,3)	(0,4)	(-16,7)	(27,5)	(2,18)	(13,17)	
L2C -11>	(6,14)	(0,30)	(34,5)	(3,31)	(-10,14)	(1,225)	(-2,57)	(15,1)	(12,64)	(7,22)	(-4,27)	(17,16)	(-9,21)	(5,17)	(9,19)	(13,39)	
L2C -10>	(-11,1)	(1,147)	(7,13)	(10,7)	(2,32)	(17,13)	(5,15)	(9,33)	(18,15)	(23,131)	(-1,35)	(15,19)	(-5,10)	(6,16)	(31,20)	(8,19)	
L2C -9>	(8,173)	(1,163)	(24,1)	(12,7)	(15,23)	(4,5)	(-2,6)	(-1,28)	(5,4)	(7,129)	(-13,20)	(-6,8)	(23,26)	(2,20)	(16,34)	(18,18)	
L2C -8>	(1,128)	(14,23)	(-1,41)	(0,30)	(-3,1)	(-22,21)	(-20,23)	(-21,22)	(8,90)	(23,21)	(-7,9)	(-6,58)	(15,34)	(-14,28)	(7,156)	(9,18)	
L2C -7>	(6,33)	(1,108)	(21,17)	(8,57)	(10,23)	(-14,14)	(14,29)	(7,109)	(0,18)	(-8,27)	(-1,170)	(5,4)	(-15,17)	(-7,26)	(9,1)	(15,19)	
L2C -6>	(1,193)	(8,7)	(22,3)	(7,19)	(-15,4)	(6,17)	(-23,1)	(2,2)	(12,4)	(-21,5)	(3,3)	(-10,2)	(-7,5)	(-1,5)	(13,15)	(0,7)	
L2C -5>	(1,187)	(6,136)	(-27,8)	(21,106)	(2,30)	(0,98)	(7,25)	(-21,25)	(-2,38)	(22,31)	(32,1)	(5,18)	(-1,159)	(3,50)	(-22,201)	(8,27)	
L2C -4>	(1,240)	(0,37)	(7,25)	(2,71)	(-21,101)	(-22,29)	(44,18)	(4,11)	(21,12)	(22,167)	(3,13)	(-2,40)	(-1,63)	(5,44)	(18,1)	(6,13)	
L2C -3>	(-22,55)	(1,168)	(5,4)	(-21,58)	(3,4)	(-43,5)	(44,7)	(22,132)	(0,15)	(2,13)	(23,4)	(21,154)	(-6,1)	(43,21)	(4,23)	(-1,98)	
L2C -2>	(-5,1)	(-1,12)	(2,6)	(-21,15)	(22,23)	(-42,2)	(21,14)	(1,137)	(-43,3)	(-24,1)	(7,1)	(0,126)	(44,2)	(3,3)	(-22,12)	(43,11)	
L2C -1>	(0,114)	(15,2)	(2,43)	(-1,24)	(1,162)	(44,21)	(-42,8)	(-21,158)	(22,67)	(23,5)	(43,9)	(-20,3)	(21,25)	(-43,6)	(-22,48)	(5,1)	
L2C 0>	(-22,9)	(14,1)	(43,1)	(1,127)	(-1,16)	(22,26)	(-6,1)	(0,215)	(2,10)	(-21,8)	(39,1)	(21,24)	(16,0)	(15,0)	(-4,1)	(8,0)	
L2C 1>	(36,1)	(1,211)	(12,1)	(-11,1)	(-57,1)	(2,38)	(3,30)	(21,1)	(4,16)	(5,4)	(-2,3)	(-1,4)	(-4,2)	(-6,1)	(11,2)	(57,1)	
L2C 2>	(-1,11)	(-23,6)	(1,185)	(-3,3)	(2,30)	(45,1)	(-4,4)	(-22,1)	(-44,1)	(20,3)	(4,7)	(-2,15)	(3,11)	(5,3)	(17,1)	(-25,1)	
L2C 3>	(1,221)	(-47,15)	(-5,5)	(3,35)	(16,6)	(-3,3)	(18,16)	(2,56)	(13,1)	(-25,20)	(4,18)	(-23,3)	(-1,13)	(-2,10)	(-4,14)	(19,19)	
L2C 4>	(1,128)	(-27,8)	(-48,7)	(2,35)	(-3,14)	(-23,0)	(-25,12)	(3,31)	(-26,10)	(4,37)	(-1,5)	(-2,3)	(-6,23)	(38,5)	(-5,20)	(16,12)	
L2C 5>	(7,1)	(1,7)	(2,2)	(-11,1)	(17,179)	(18,1)	(6,1)	(-3,1)	(-39,29)	(-18,31)	(5,1)	(-8,1)	(4,1)	(-48,1)	(-15,1)	(-6,5)	
L2C 6>	(-39,1)	(-5,9)	(1,162)	(0,18)	(7,79)	(-1,17)	(6,7)	(2,16)	(-6,110)	(8,10)	(15,5)	(9,7)	(-22,3)	(-14,73)	(14,4)	(-7,21)	
L2C 7>	(1,172)	(14,14)	(-6,146)	(7,70)	(2,62)	(-15,41)	(-1,26)	(0,47)	(-7,79)	(-20,17)	(-29,14)	(5,1)	(-22,21)	(8,39)	(-14,164)	(-13,9)	
L2C 8>	(1,79)	(5,73)	(-2,46)	(2,54)	(-21,20)	(6,89)	(7,59)	(-7,1)	(15,30)	(-8,47)	(-1,220)	(13,24)	(-14,16)	(0,32)	(14,13)	(-6,81)	
L2C 9>	(14,25)	(1,128)	(-5,38)	(4,1)	(3,16)	(2,59)	(5,38)	(18,9)	(-1,123)	(13,52)	(-2,105)	(-7,17)	(-22,32)	(-6,11)	(-8,50)	(-11,4)	
L2C 10>	(1,110)	(-11,16)	(-18,7)	(-1,32)	(-5,58)	(2,39)	(-2,253)	(5,31)	(-4,9)	(12,1)	(10,3)	(-21,4)	(3,13)	(-16,12)	(-9,35)	(4,19)	
L2C 11>	(-8,1)	(1,254)	(2,1)	(9,1)	(17,1)	(-2,0)	(-13,0)	(-26,0)	(-7,1)	(-10,0)	(43,0)	(1,0)	(1,0)	(1,0)	(1,0)	(1,0)	
L2C 12>	(-26,1)	(-18,1)	(2,199)	(-38,1)	(-11,1)	(-15,1)	(-13,0)	(11,0)	(12,0)	(-14,0)	(-1,0)	(-8,0)	(-3,2)	(3,0)	(1,2)	(1,0)	
L2C 13>	(-8,18)	(-12,9)	(1,231)	(-6,58)	(-5,7)	(-20,29)	(-11,1)	(-7,20)	(-14,67)	(7,14)	(-15,21)	(-22,8)	(14,7)	(-4,28)	(8,22)	(-21,19)	
L2C 14>	(-6,192)	(-15,94)	(0,28)	(-9,9)	(-36,21)	(-12,15)	(1,209)	(-4,38)	(21,44)	(-11,1)	(-13,21)	(-22,17)	(-16,9)	(-1,54)	(-14,78)	(7,63)	
L2C 15>	(-15,157)	(1,147)	(0,48)	(-14,108)	(-1,223)	(-7,1)	(-8,147)	(-13,59)	(2,22)	(6,28)	(-2,102)	(-21,63)	(-28,30)	(-16,146)	(-22,93)	(29,26)	
L2C 16>	(6,1)	(-1,20)	(-8,28)	(0,70)	(-5,3)	(-17,8)	(21,5)	(-7,9)	(1,45)	(-21,237)	(-15,15)	(-16,100)	(-28,4)	(-22,109)	(2,8)	(-42,3)	
L2C 17>	(-19,1)	(1,199)	(-57,1)	(-10,1)	(2,3)	(0,0)	(-22,0)	(-16,8)	(8,0)	(-1,0)	(22,0)	(-40,0)	(21,0)	(1,0)	(1,0)	(1,0)	
L2C 18>	(-17,69)	(1,24)	(21,9)	(-10,1)	(2,9)	(-2,1)	(22,40)	(-21,188)	(-1,9)	(0,20)	(-16,7)	(-22,81)	(-42,10)	(-15,2)	(-43,7)	(-9,1)	
L2C 19>	(-22,90)	(22,63)	(-21,246)	(-18,8)	(-43,11)	(1,60)	(-42,7)	(-1,23)	(0,42)	(-19,9)	(23,4)	(-20,1)	(3,1)	(21,23)	(-17,1)	(-49,1)	
L2C 20>	(1,50)	(0,12)	(-43,20)	(3,1)	(22,13)	(-21,162)	(-20,1)	(2,4)	(-22,51)	(-42,9)	(21,31)	(-19,14)	(-23,0)	(-8,0)	(-41,3)	(-1,8)	
L2C 21>	(1,194)	(-20,75)	(22,113)	(-42,35)	(-1,33)	(-22,225)	(-43,128)	(-21,176)	(21,34)	(0,14)	(2,24)	(-28,3)	(-7,3)	(23,3)	(-41,2)	(11,1)	
L2C 22>	(1,63)	(-23,5)	(-43,43)	(-44,19)	(20,16)	(-1,56)	(-21,153)	(0,8)	(-22,46)	(-14,1)	(21,51)	(2,2)	(-20,8)	(-42,3)	(22,8)	(-2,5)	
L2C 23>	(-1,50)	(-2,12)	(-44,56)	(20,64)	(1,189)	(22,11)	(-6,3)	(-45,8)	(19,33)	(-22,66)	(-21,28)	(2,23)	(-43,2)	(3,1)	(-23,5)	(21,25)	
L2C 24>	(-1,53)	(-46,83)	(-2,98)	(20,16)	(-23,128)	(1,170)	(-4,13)	(-22,33)	(-28,1)	(-45,64)	(18,46)	(-3,41)	(-17,14)	(-21,8)	(-25,11)	(19,144)	
L2C 25>	(-23,27)	(-25,63)	(-1,17)	(-46,57)	(-17,17)	(18,251)	(16,1)	(-3,39)	(1,108)	(-47,75)	(3,6)	(-19,27)	(-24,106)	(-13,13)	(-21,14)	(-4,71)	
L2C 26>	(1,216)	(-28,22)	(-6,12)	(-26,15)	(-27,17)	(-21,53)	(-14,25)	(-25,21)	(-12,10)	(-40,1)	(-20,28)	(-22,11)	(4,11)	(-13,71)	(-43,6)	(-4,57)	
L2C 27>	(-7,59)	(16,91)	(-12,29)	(1,204)	(-6,38)	(7,48)	(-22,30)	(15,23)	(-25,20)	(-27,28)	(2,31)	(-48,34)	(-1,35)	(-3,8)	(-21,109)	(-32,1)	
L2C 28>	(7,46)	(-50,129)	(-29,105)	(16,1)	(1,69)	(-35,16)	(-1,28)	(0,31)	(-41,6)	(-14,52)	(-8,25)	(-27,14)	(-36,5)	(-22,21)	(21,12)	(-49,48)	
L2C 29>	(-22,53)	(1,95)	(16,26)	(-28,222)	(-27,41)	(-41,1)	(-1,76)	(0,43)	(-8,103)	(21,103)	(-30,42)	(-3,8)	(-14,173)	(-44,15)	(-50,182)	(23,15)	
L2C 30>	(1,112)	(23,1)	(20,12)	(-22,24)	(-28,37)	(21,9)	(-50,48)	(-29,143)	(-37,12)	(3,7)	(-5,7)	(-6,12)	(5,40)	(-1,87)	(-9,15)	(-14,9)	
L2C 31>	(-51,15)	(10,1)	(1,70)	(-29,26)	(-1,35)	(2,16)	(-23,10)	(-16,9)	(-52,20)	(-14,11)	(-30,47)	(21,4)	(-33,6)	(6,9)	(4,8)	(-50,11)	
L2C 32>	(-33,77)	(-27,33)	(1,71)	(-38,13)	(-1,20)	(-28,10)	(-9,4)	(2,13)	(3,9)	(-45,4)	(-25,4)	(-31,26)	(-32,13)	(-19,1)	(-29,3)	(-2,2)	
L2C 33>	(1,84)	(-24,79)	(-9,9)	(-1,24)	(-38,11)	(-7,7)	(2,22)	(-35,8)	(-13,5)	(-37,6)	(5,3)	(3,9)	(-33,1)	(-8,12)	(-28,21)	(-27,10)	
L2C 34>	(-14,10)	(1,104)	(-28,48)	(-27,81)	(2,25)	(-43,7)	(-57,30)	(-7,32)	(-21,1)	(-36,64)	(-34,8)	(-42,6)	(8,14)	(-9,6)	(0,3)	(-15,10)	
L2C 35>	(1,44)	(-51,63)	(-49,24)	(-55,15)	(-34,64)	(-28,55)	(7,8)	(-7,14)	(8,14)	(-5,17)	(-1,23)	(-21,15)	(-36,237)	(2,1)	(-35,11)	(-44,41)	
L2C 36>	(-22,33)	(-44,65)	(-35,168)	(7,11)	(1,83)	(-3,6)	(-34,29)	(11,1)	(-1,58)	(-7,84)	(9,4)	(-27,67)	(-15,20)	(-37,25)	(-57,52)	(-5,21)	
L2C 37>	(6,13)	(-57,9)	(-7,65)	(1,75)	(-36,62)	(-1,74)	(-51,51)	(-45,12)	(-8,44)	(-25,1)	(-28,9)	(-50,5)	(-44,32)	(-43,49)	(-9,8)	(-23,35)	
L2C 38>	(-11,50)	(-21,24)	(-5,18)	(-43,132)	(1,54)	(-45,29)	(-38,7)	(-35,6)	(-4,7)	(-34,6)	(-37,24)	(-17,28)	(-22,80)	(-39,6)	(-33,6)	(23,1)	
L2C 39>	(1,26)	(-22,26)	(-21,99)	(-43,161)	(-5,1)	(0,8)	(-11,2)	(3,4)	(-38,14)	(-20,2)	(-39,22)	(-1,3)	(-25,2)	(-42,74)	(-23,6)	(2,12)	
L2C 40>	(-42,53)	(-21,231)	(-43,223)	(-23,3)	(-1,4)	(-41,1)	(1,61)	(-44,4)	(-38,4)	(-20,3)	(2,8)	(0,32)	(-24,2)	(4,2)	(-22,82)	(-39,15)	
L2C 41>	(2,4)	(-44,11)	(1,14)	(-22,95)	(0,9)	(-21,135)	(-43,125)	(-1,11)	(-42,11)	(-40,26)	(-38,2)	(-17,1)	(-20,1)	(-39,4)	(-37,3)	(-19,2)	
L2C 42>	(3,1)	(-43,29)	(-21,182)	(1,64)	(-19,1)	(-22,87)	(-41,27)	(-42,12)	(-1,8)	(0,53)	(-44,5)	(-20,36)	(-45,1)	(12,1)	(2,4)	(-27,1)	
L2C 43>	(-22,151)	(2,0)	(-1,25)	(-21,216)	(-18,4)	(1,31)	(-19,2)	(-42,149)	(-43,5)	(-44,37)	(0,12)	(-45,1)	(-40,0)	(-39,0)	(-20,18)	(-24,0)	
L2C 44>	(-7,2)	(1,60)	(-23,11)	(-22,240)	(-43,69)	(-1,134)	(-21,74)	(-42,8)	(-2,2)	(-19,1)	(3,1)	(0,13)	(-45,1)	(2,11)	(4,0)	(-5,0)	
L2C 45>	(1,165)	(-23,57)	(-2,162)	(-44,93)	(-22,16)	(-1,99)	(-46,11)	(-21,1)	(-45,20)	(-42,5)	(2,14)	(4,7)	(3,4)	(-3,12)	(-24,6)	(-8,3)	
L2C 46>	(-2,215)	(-3,189)	(-45,76)	(-44,13)	(1,65)	(-1,28)	(-24,55)	(3,1)	(-43,9)	(-4,10)	(-23,39)	(2,6)	(-47,4)	(-46,15)	(-22,4)	(-25,7)	
L2C 47>	(-52,3)	(-33,44)	(-44,4)	(1,61)	(-48,44)	(2,9)	(-29,18)	(-28,16)	(-7,14)	(-49,41)	(-50,20)	(-46,60)	(-3,130)	(-4,133)	(-11,1)	(-24,29)	
L2C 48>	(-41,9)	(-50,26)	(-49,17)	(-29,17)	(-6,15)	(-54,4)	(-26,5)	(-18,48)	(-47,8)	(-51,6)	(3,5)	(1,63)	(-46,1)	(-7,25)	(-2,3)	(-5,39)	
L2C 49>	(1,10)	(-48,6)	(-9,1)	(-29,3)	(-1,5)	(-43,3)	(-6,13)	(-51,3)	(-8,14)	(-5,2)	(2,2)	(-7,167)	(-14,2)	(-28,18)	(-50,8)	(-21,3)	
L2C 50>	(-7,216)	(1,61)	(-1,71)	(2,22)	(-22,16)	(-21,36)	(3,11)	(-49,118)	(-36,31)	(-28,142)	(-8,64)	(-29,134)	(-50,23)	(-51,68)	(-45,1)	(-32,4)	
L2C 51>	(-1,36)	(-52,84)	(-36,20)	(-7,58)	(-54,16)	(-8,24)	(-51,78)	(2,9)	(1,18)	(-2,4)	(-44,35)	(-50,42)	(-53,11)	(0,8)	(-30,4)	(-57,1)	
L2C 52>	(0,5)	(1,20)	(-45,16)	(-51,58)	(-8,18)	(-53,25)	(-28,12)	(-31,3)	(-44,49)	(-50,12)	(2,10)	(-60,1)	(-52,11)	(-1,10)	(-34,3)	(5,2)	
L2C 53>	(-52,10)	(-54,1)	(-28,1)	(2,14)	(-44,2)	(-53,78)	(-55,1)	(1,9)	(-1,8)	(-57,1)	(5,3)	(3,5)	(8,1)	(-50,4)	(-45,2)	(-11,1)	
L2C 54>	(1,12)	(-53,6)	(-61,2)	(2,6)	(-1,6)	(-18,2)	(3,1)	(-36,1)	(-50,2)	(-21,2)	(-11,3)	(-3,1)	(5,3)	(-56,1)	(-7,3)	(-52,3)	
L2C 55>	(1,10)	(-44,6)	(-53,2)	(-35,16)	(-57,15)	(-1,1)	(-59,1)	(-6,1)	(-48,3)	(-54,5)	(-36,26)	(-34,28)	(-51,8)	(-7,2)	(3,6)	(-49,3)	
L2C 56>	(-42,3)	(1,11)	(-50,1)	(-36,2)	(-10,1)	(-43,7)	(2,9)	(-44,1)	(-57,4)	(-59,1)	(-49,4)	(-51,3)	(3,1)	(-11,1)	(-1,1)	(-53,1)	
L2C 57>	(1,9)	(-1,2)	(-42,2)	(-55,2)	(-34,1)	(-50,5)	(3,2)	(-56,7)	(-7,5)	(-51,9)	(-49,3)	(-29,1)	(-11,1)	(-44,2)	(-43,1)	(0,3)	
L2C 58>	(-59,3)	(-14,4)	(1,9)	(-55,2)	(-36,80)	(-51,58)	(-50,2)	(-45,4)	(-44,56)	(-57,17)	(-35,12)	(-37,5)	(-1,3)	(-52,2)	(-6,1)	(-27,2)	
L2C 59>	(1,7)	(-1,5)	(-54,2)	(-44,3)	(-35,2)	(-30,3)	(-16,1)	(-41,3)	(-48,1)	(-18,2)	(-28,2)	(-7,2)	(-51,1)	(-52,1)	(-26,1)	(-53,2)	
L2C 60>	(-57,1)	(-41,4)	(1,4)	(-51,1)	(-3,1)	(0,1)	(-2,1)	(-42,1)	(-60,1)	(1,0)	(1,0)	(1,0)	(1,0)	(1,0)	(1,0)	(1,0)	
L2C 61>	(-42,1)	(-31,1)	(-28,3)	(-46,1)	(-17,1)	(-53,1)	(-61,1)	(-49,1)	(-15,1)	(1,1)	(-39,1)	(-8,1)	(-11,1)	(1,0)	(1,0)	(1,0)	
L2C 62>	(-37,1)	(-42,3)	(-43,6)	(-17,1)	(-36,2)	(-46,1)	(1,2)	(-54,2)	(-29,1)	(-26,1)	(1,0)	(1,0)	(1,0)	(1,0)	(1,0)	(1,0)	
L2C 63>	(-62,1)	(-44,13)	(-22,125)	(-21,152)	(-43,9)	(-1,8)	(-41,1)	(-42,1)	(-20,2)	(-19,3)	(1,0)	(1,0)	(1,0)	(1,0)	(1,0)	(1,0)	

DRAM Statistics
 CHANNEL 0
 RQ ROW_BUFFER_HIT:     501866  ROW_BUFFER_MISS:    1210240
 DBUS_CONGESTED:    1081942
 WQ ROW_BUFFER_HIT:      41003  ROW_BUFFER_MISS:     457385  FULL:          0

 AVG_CONGESTED_CYCLE: 6
