
*** ChampSim Multicore Out-of-Order Simulator ***

Warmup Instructions: 1000000
Simulation Instructions: 10000000
Number of CPUs: 4
LLC sets: 8192
LLC ways: 16
Off-chip DRAM Size: 4096 MB Channels: 1 Width: 64-bit Data Rate: 3200 MT/s

CPU 0 runs /home/virtualcse/Data-Prefetching/ChampSim/dpc3_traces/649.fotonik3d_s-8225B.champsimtrace.xz
CPU 1 runs /home/virtualcse/Data-Prefetching/ChampSim/dpc3_traces/648.exchange2_s-1699B.champsimtrace.xz
CPU 2 runs /home/virtualcse/Data-Prefetching/ChampSim/dpc3_traces/620.omnetpp_s-141B.champsimtrace.xz
CPU 3 runs /home/virtualcse/Data-Prefetching/ChampSim/dpc3_traces/625.x264_s-18B.champsimtrace.xz
Ultra pref. initializing...
Ultra pref. initialized
Ultra pref. initializing...
Ultra pref. initialized
Ultra pref. initializing...
Ultra pref. initialized
Ultra pref. initializing...
Ultra pref. initialized
Ultra pref. initializing...
Ultra pref. initialized
Ultra pref. initializing...
Ultra pref. initialized
Ultra pref. initializing...
Ultra pref. initialized
Ultra pref. initializing...
Ultra pref. initialized

Warmup complete CPU 0 instructions: 1334392 cycles: 540024 (Simulation time: 0 hr 0 min 12 sec) 
Warmup complete CPU 1 instructions: 1761738 cycles: 540024 (Simulation time: 0 hr 0 min 12 sec) 
Warmup complete CPU 2 instructions: 1000001 cycles: 540024 (Simulation time: 0 hr 0 min 12 sec) 
Warmup complete CPU 3 instructions: 1593829 cycles: 540023 (Simulation time: 0 hr 0 min 12 sec) 

Heartbeat CPU 1 instructions: 10000001 cycles: 4045634 heartbeat IPC: 2.4718 cumulative IPC: 2.35002 (Simulation time: 0 hr 0 min 47 sec) 
Heartbeat CPU 3 instructions: 10000000 cycles: 4492622 heartbeat IPC: 2.22587 cumulative IPC: 2.12675 (Simulation time: 0 hr 0 min 51 sec) 
Finished CPU 1 instructions: 10000000 cycles: 4259913 cumulative IPC: 2.34747 (Simulation time: 0 hr 0 min 54 sec) 
Finished CPU 3 instructions: 10000001 cycles: 4720748 cumulative IPC: 2.11831 (Simulation time: 0 hr 0 min 58 sec) 
Heartbeat CPU 0 instructions: 10000003 cycles: 6340871 heartbeat IPC: 1.57707 cumulative IPC: 1.49385 (Simulation time: 0 hr 1 min 8 sec) 
Finished CPU 0 instructions: 10000003 cycles: 6994012 cumulative IPC: 1.42979 (Simulation time: 0 hr 1 min 18 sec) 
Heartbeat CPU 1 instructions: 20000000 cycles: 8237660 heartbeat IPC: 2.38548 cumulative IPC: 2.36933 (Simulation time: 0 hr 1 min 24 sec) 
Heartbeat CPU 3 instructions: 20000001 cycles: 9394681 heartbeat IPC: 2.03996 cumulative IPC: 2.0787 (Simulation time: 0 hr 1 min 35 sec) 
Heartbeat CPU 1 instructions: 30000001 cycles: 12424089 heartbeat IPC: 2.38867 cumulative IPC: 2.37615 (Simulation time: 0 hr 2 min 2 sec) 
Heartbeat CPU 3 instructions: 30000003 cycles: 14168700 heartbeat IPC: 2.09467 cumulative IPC: 2.08429 (Simulation time: 0 hr 2 min 18 sec) 
Heartbeat CPU 0 instructions: 20000000 cycles: 14949806 heartbeat IPC: 1.16158 cumulative IPC: 1.29534 (Simulation time: 0 hr 2 min 25 sec) 
Heartbeat CPU 1 instructions: 40000002 cycles: 17010705 heartbeat IPC: 2.18026 cumulative IPC: 2.3216 (Simulation time: 0 hr 2 min 43 sec) 
Heartbeat CPU 3 instructions: 40000001 cycles: 18917747 heartbeat IPC: 2.10569 cumulative IPC: 2.08982 (Simulation time: 0 hr 3 min 0 sec) 
Heartbeat CPU 1 instructions: 50000000 cycles: 21372832 heartbeat IPC: 2.29246 cumulative IPC: 2.3155 (Simulation time: 0 hr 3 min 22 sec) 
Heartbeat CPU 0 instructions: 30000000 cycles: 23595808 heartbeat IPC: 1.1566 cumulative IPC: 1.24332 (Simulation time: 0 hr 3 min 41 sec) 
Heartbeat CPU 3 instructions: 50000002 cycles: 23677113 heartbeat IPC: 2.10112 cumulative IPC: 2.09215 (Simulation time: 0 hr 3 min 42 sec) 
Heartbeat CPU 1 instructions: 60000001 cycles: 25706687 heartbeat IPC: 2.30741 cumulative IPC: 2.3141 (Simulation time: 0 hr 4 min 0 sec) 
Heartbeat CPU 2 instructions: 10000000 cycles: 27881775 heartbeat IPC: 0.358657 cumulative IPC: 0.329167 (Simulation time: 0 hr 4 min 19 sec) 
Heartbeat CPU 3 instructions: 60000000 cycles: 28442407 heartbeat IPC: 2.09851 cumulative IPC: 2.09323 (Simulation time: 0 hr 4 min 24 sec) 
Heartbeat CPU 1 instructions: 70000003 cycles: 30018035 heartbeat IPC: 2.31946 cumulative IPC: 2.31489 (Simulation time: 0 hr 4 min 38 sec) 
Finished CPU 2 instructions: 10000000 cycles: 30508380 cumulative IPC: 0.327779 (Simulation time: 0 hr 4 min 47 sec) 

CPU 0 Branch Prediction Accuracy: 99.975% MPKI: 0.00434727 Average ROB Occupancy at Mispredict: 341.577

CPU 1 Branch Prediction Accuracy: 97.0706% MPKI: 4.02372 Average ROB Occupancy at Mispredict: 49.6345

CPU 2 Branch Prediction Accuracy: 96.1891% MPKI: 5.6957 Average ROB Occupancy at Mispredict: 85.636

CPU 3 Branch Prediction Accuracy: 97.6218% MPKI: 0.859124 Average ROB Occupancy at Mispredict: 238.05

ChampSim completed all CPUs

Total Simulation Statistics (not including warmup)

CPU 0 cumulative IPC: 1.21804 instructions: 37160379 cycles: 30508380
L1D TOTAL     ACCESS:   12761011  HIT:   12266819  MISS:     494192
L1D LOAD      ACCESS:    5198205  HIT:    5066524  MISS:     131681
L1D RFO       ACCESS:    2607627  HIT:    2607212  MISS:        415
L1D PREFETCH  ACCESS:    4955179  HIT:    4593083  MISS:     362096
L1D WRITEBACK ACCESS:          0  HIT:          0  MISS:          0
L1I TOTAL     ACCESS:    3259491  HIT:    3259491  MISS:          0
L1I LOAD      ACCESS:    3259491  HIT:    3259491  MISS:          0
L1I RFO       ACCESS:          0  HIT:          0  MISS:          0
L1I PREFETCH  ACCESS:          0  HIT:          0  MISS:          0
L1I WRITEBACK ACCESS:          0  HIT:          0  MISS:          0
L2C TOTAL     ACCESS:    1611495  HIT:    1208584  MISS:     402911
L2C LOAD      ACCESS:      31195  HIT:      18559  MISS:      12636
L2C RFO       ACCESS:        415  HIT:        349  MISS:         66
L2C PREFETCH  ACCESS:    1253326  HIT:     863117  MISS:     390209
L2C WRITEBACK ACCESS:     326559  HIT:     326559  MISS:          0

L1D -512>	(-1,12)	(1,41)	(0,70)	(5,11)	(4,26)	(2,8)	(68,2)	(88,1)	(-9,2)	(8,1)	(10,1)	(13,1)	(3,14)	(7,4)	(6,3)	(50,0)	
L1D -511>	(1,21)	(0,24)	(2,87)	(4,3)	(3,17)	(1,0)	(1,0)	(1,0)	(1,0)	(1,0)	(1,0)	(1,0)	(1,0)	(1,0)	(1,0)	(1,0)	
L1D -510>	(1,18)	(0,33)	(2,75)	(3,4)	(4,15)	(1,0)	(1,0)	(1,0)	(1,0)	(1,0)	(1,0)	(1,0)	(1,0)	(1,0)	(1,0)	(1,0)	
L1D -509>	(0,1)	(1,1)	(1,0)	(1,0)	(1,0)	(1,0)	(1,0)	(1,0)	(1,0)	(1,0)	(1,0)	(1,0)	(1,0)	(1,0)	(1,0)	(1,0)	
L1D -508>	(3,18)	(2,85)	(0,7)	(1,6)	(1,0)	(1,0)	(1,0)	(1,0)	(1,0)	(1,0)	(1,0)	(1,0)	(1,0)	(1,0)	(1,0)	(1,0)	
L1D -507>	(1,0)	(1,0)	(1,0)	(1,0)	(1,0)	(1,0)	(1,0)	(1,0)	(1,0)	(1,0)	(1,0)	(1,0)	(1,0)	(1,0)	(1,0)	(1,0)	
L1D -506>	(122,1)	(0,1)	(8,1)	(1,0)	(1,0)	(1,0)	(1,0)	(1,0)	(1,0)	(1,0)	(1,0)	(1,0)	(1,0)	(1,0)	(1,0)	(1,0)	
L1D -505>	(1,0)	(1,0)	(1,0)	(1,0)	(1,0)	(1,0)	(1,0)	(1,0)	(1,0)	(1,0)	(1,0)	(1,0)	(1,0)	(1,0)	(1,0)	(1,0)	
L1D -504>	(0,1)	(1,0)	(1,0)	(1,0)	(1,0)	(1,0)	(1,0)	(1,0)	(1,0)	(1,0)	(1,0)	(1,0)	(1,0)	(1,0)	(1,0)	(1,0)	
L1D -503>	(0,1)	(1,0)	(1,0)	(1,0)	(1,0)	(1,0)	(1,0)	(1,0)	(1,0)	(1,0)	(1,0)	(1,0)	(1,0)	(1,0)	(1,0)	(1,0)	
L1D -502>	(99,1)	(112,1)	(0,1)	(1,0)	(1,0)	(1,0)	(1,0)	(1,0)	(1,0)	(1,0)	(1,0)	(1,0)	(1,0)	(1,0)	(1,0)	(1,0)	
L1D -501>	(-6,1)	(342,1)	(2,1)	(10,1)	(4,1)	(1,0)	(1,0)	(1,0)	(1,0)	(1,0)	(1,0)	(1,0)	(1,0)	(1,0)	(1,0)	(1,0)	
L1D -500>	(4,1)	(0,1)	(1,0)	(1,0)	(1,0)	(1,0)	(1,0)	(1,0)	(1,0)	(1,0)	(1,0)	(1,0)	(1,0)	(1,0)	(1,0)	(1,0)	
L1D -499>	(1,1)	(29,1)	(1,0)	(1,0)	(1,0)	(1,0)	(1,0)	(1,0)	(1,0)	(1,0)	(1,0)	(1,0)	(1,0)	(1,0)	(1,0)	(1,0)	
L1D -498>	(146,1)	(88,1)	(85,4)	(1,0)	(1,0)	(1,0)	(1,0)	(1,0)	(1,0)	(1,0)	(1,0)	(1,0)	(1,0)	(1,0)	(1,0)	(1,0)	
L1D -497>	(1,0)	(1,0)	(1,0)	(1,0)	(1,0)	(1,0)	(1,0)	(1,0)	(1,0)	(1,0)	(1,0)	(1,0)	(1,0)	(1,0)	(1,0)	(1,0)	
L1D -496>	(1,1)	(0,1)	(135,1)	(1,0)	(1,0)	(1,0)	(1,0)	(1,0)	(1,0)	(1,0)	(1,0)	(1,0)	(1,0)	(1,0)	(1,0)	(1,0)	
L1D -495>	(0,1)	(146,1)	(1,1)	(1,0)	(1,0)	(1,0)	(1,0)	(1,0)	(1,0)	(1,0)	(1,0)	(1,0)	(1,0)	(1,0)	(1,0)	(1,0)	
L1D -494>	(0,1)	(112,2)	(146,1)	(1,1)	(1,0)	(1,0)	(1,0)	(1,0)	(1,0)	(1,0)	(1,0)	(1,0)	(1,0)	(1,0)	(1,0)	(1,0)	
L1D -493>	(1,1)	(0,1)	(1,0)	(1,0)	(1,0)	(1,0)	(1,0)	(1,0)	(1,0)	(1,0)	(1,0)	(1,0)	(1,0)	(1,0)	(1,0)	(1,0)	
L1D -492>	(0,2)	(10,1)	(1,0)	(1,0)	(1,0)	(1,0)	(1,0)	(1,0)	(1,0)	(1,0)	(1,0)	(1,0)	(1,0)	(1,0)	(1,0)	(1,0)	
L1D -491>	(-1,2)	(1,0)	(1,0)	(1,0)	(1,0)	(1,0)	(1,0)	(1,0)	(1,0)	(1,0)	(1,0)	(1,0)	(1,0)	(1,0)	(1,0)	(1,0)	
L1D -490>	(98,1)	(47,1)	(0,1)	(3,1)	(1,0)	(1,0)	(1,0)	(1,0)	(1,0)	(1,0)	(1,0)	(1,0)	(1,0)	(1,0)	(1,0)	(1,0)	
L1D -489>	(-3,1)	(1,0)	(1,0)	(1,0)	(1,0)	(1,0)	(1,0)	(1,0)	(1,0)	(1,0)	(1,0)	(1,0)	(1,0)	(1,0)	(1,0)	(1,0)	
L1D -488>	(-3,1)	(0,1)	(115,1)	(99,1)	(1,0)	(1,0)	(1,0)	(1,0)	(1,0)	(1,0)	(1,0)	(1,0)	(1,0)	(1,0)	(1,0)	(1,0)	
L1D -487>	(304,1)	(0,1)	(1,0)	(1,0)	(1,0)	(1,0)	(1,0)	(1,0)	(1,0)	(1,0)	(1,0)	(1,0)	(1,0)	(1,0)	(1,0)	(1,0)	
L1D -486>	(99,1)	(55,1)	(1,1)	(18,1)	(0,1)	(79,1)	(1,0)	(1,0)	(1,0)	(1,0)	(1,0)	(1,0)	(1,0)	(1,0)	(1,0)	(1,0)	
L1D -485>	(346,1)	(0,2)	(1,1)	(7,1)	(1,0)	(1,0)	(1,0)	(1,0)	(1,0)	(1,0)	(1,0)	(1,0)	(1,0)	(1,0)	(1,0)	(1,0)	
L1D -484>	(0,1)	(82,1)	(70,1)	(85,3)	(10,1)	(47,1)	(1,0)	(1,0)	(1,0)	(1,0)	(1,0)	(1,0)	(1,0)	(1,0)	(1,0)	(1,0)	
L1D -483>	(322,1)	(1,0)	(1,0)	(1,0)	(1,0)	(1,0)	(1,0)	(1,0)	(1,0)	(1,0)	(1,0)	(1,0)	(1,0)	(1,0)	(1,0)	(1,0)	
L1D -482>	(98,1)	(38,1)	(354,1)	(-25,1)	(-6,1)	(1,0)	(1,0)	(1,0)	(1,0)	(1,0)	(1,0)	(1,0)	(1,0)	(1,0)	(1,0)	(1,0)	
L1D -481>	(0,2)	(4,1)	(1,0)	(1,0)	(1,0)	(1,0)	(1,0)	(1,0)	(1,0)	(1,0)	(1,0)	(1,0)	(1,0)	(1,0)	(1,0)	(1,0)	
L1D -480>	(99,2)	(3,1)	(34,1)	(1,0)	(1,0)	(1,0)	(1,0)	(1,0)	(1,0)	(1,0)	(1,0)	(1,0)	(1,0)	(1,0)	(1,0)	(1,0)	
L1D -479>	(146,1)	(0,1)	(1,0)	(1,0)	(1,0)	(1,0)	(1,0)	(1,0)	(1,0)	(1,0)	(1,0)	(1,0)	(1,0)	(1,0)	(1,0)	(1,0)	
L1D -478>	(34,1)	(95,1)	(1,0)	(1,0)	(1,0)	(1,0)	(1,0)	(1,0)	(1,0)	(1,0)	(1,0)	(1,0)	(1,0)	(1,0)	(1,0)	(1,0)	
L1D -477>	(1,1)	(1,0)	(1,0)	(1,0)	(1,0)	(1,0)	(1,0)	(1,0)	(1,0)	(1,0)	(1,0)	(1,0)	(1,0)	(1,0)	(1,0)	(1,0)	
L1D -476>	(91,1)	(3,1)	(-2,1)	(0,1)	(1,0)	(1,0)	(1,0)	(1,0)	(1,0)	(1,0)	(1,0)	(1,0)	(1,0)	(1,0)	(1,0)	(1,0)	
L1D -475>	(0,2)	(4,1)	(1,0)	(1,0)	(1,0)	(1,0)	(1,0)	(1,0)	(1,0)	(1,0)	(1,0)	(1,0)	(1,0)	(1,0)	(1,0)	(1,0)	
L1D -474>	(4,1)	(0,1)	(1,0)	(1,0)	(1,0)	(1,0)	(1,0)	(1,0)	(1,0)	(1,0)	(1,0)	(1,0)	(1,0)	(1,0)	(1,0)	(1,0)	
L1D -473>	(-1,1)	(0,1)	(52,1)	(1,0)	(1,0)	(1,0)	(1,0)	(1,0)	(1,0)	(1,0)	(1,0)	(1,0)	(1,0)	(1,0)	(1,0)	(1,0)	
L1D -472>	(0,1)	(4,1)	(1,0)	(1,0)	(1,0)	(1,0)	(1,0)	(1,0)	(1,0)	(1,0)	(1,0)	(1,0)	(1,0)	(1,0)	(1,0)	(1,0)	
L1D -471>	(1,2)	(0,1)	(262,1)	(1,0)	(1,0)	(1,0)	(1,0)	(1,0)	(1,0)	(1,0)	(1,0)	(1,0)	(1,0)	(1,0)	(1,0)	(1,0)	
L1D -470>	(45,1)	(0,3)	(124,1)	(34,1)	(-40,1)	(121,1)	(370,1)	(1,1)	(1,0)	(1,0)	(1,0)	(1,0)	(1,0)	(1,0)	(1,0)	(1,0)	
L1D -469>	(350,1)	(-1,1)	(23,1)	(1,0)	(1,0)	(1,0)	(1,0)	(1,0)	(1,0)	(1,0)	(1,0)	(1,0)	(1,0)	(1,0)	(1,0)	(1,0)	
L1D -468>	(20,1)	(0,1)	(69,1)	(479,1)	(88,1)	(103,1)	(1,0)	(1,0)	(1,0)	(1,0)	(1,0)	(1,0)	(1,0)	(1,0)	(1,0)	(1,0)	
L1D -467>	(1,1)	(469,1)	(0,1)	(1,0)	(1,0)	(1,0)	(1,0)	(1,0)	(1,0)	(1,0)	(1,0)	(1,0)	(1,0)	(1,0)	(1,0)	(1,0)	
L1D -466>	(490,1)	(4,1)	(1,0)	(1,0)	(1,0)	(1,0)	(1,0)	(1,0)	(1,0)	(1,0)	(1,0)	(1,0)	(1,0)	(1,0)	(1,0)	(1,0)	
L1D -465>	(5,1)	(8,1)	(386,1)	(352,1)	(1,1)	(1,0)	(1,0)	(1,0)	(1,0)	(1,0)	(1,0)	(1,0)	(1,0)	(1,0)	(1,0)	(1,0)	
L1D -464>	(69,1)	(-1,1)	(17,1)	(0,2)	(2,1)	(1,1)	(1,0)	(1,0)	(1,0)	(1,0)	(1,0)	(1,0)	(1,0)	(1,0)	(1,0)	(1,0)	
L1D -463>	(1,1)	(17,1)	(1,0)	(1,0)	(1,0)	(1,0)	(1,0)	(1,0)	(1,0)	(1,0)	(1,0)	(1,0)	(1,0)	(1,0)	(1,0)	(1,0)	
L1D -462>	(218,1)	(89,1)	(1,1)	(0,1)	(1,0)	(1,0)	(1,0)	(1,0)	(1,0)	(1,0)	(1,0)	(1,0)	(1,0)	(1,0)	(1,0)	(1,0)	
L1D -461>	(1,1)	(430,1)	(1,0)	(1,0)	(1,0)	(1,0)	(1,0)	(1,0)	(1,0)	(1,0)	(1,0)	(1,0)	(1,0)	(1,0)	(1,0)	(1,0)	
L1D -460>	(1,1)	(0,1)	(34,1)	(382,1)	(1,0)	(1,0)	(1,0)	(1,0)	(1,0)	(1,0)	(1,0)	(1,0)	(1,0)	(1,0)	(1,0)	(1,0)	
L1D -459>	(0,2)	(146,1)	(300,1)	(1,1)	(1,0)	(1,0)	(1,0)	(1,0)	(1,0)	(1,0)	(1,0)	(1,0)	(1,0)	(1,0)	(1,0)	(1,0)	
L1D -458>	(456,2)	(91,1)	(0,4)	(26,1)	(48,1)	(-6,1)	(1,0)	(1,0)	(1,0)	(1,0)	(1,0)	(1,0)	(1,0)	(1,0)	(1,0)	(1,0)	
L1D -457>	(276,1)	(1,0)	(1,0)	(1,0)	(1,0)	(1,0)	(1,0)	(1,0)	(1,0)	(1,0)	(1,0)	(1,0)	(1,0)	(1,0)	(1,0)	(1,0)	
L1D -456>	(1,3)	(171,1)	(66,1)	(89,1)	(376,1)	(1,0)	(1,0)	(1,0)	(1,0)	(1,0)	(1,0)	(1,0)	(1,0)	(1,0)	(1,0)	(1,0)	
L1D -455>	(68,13)	(54,1)	(1,0)	(1,0)	(1,0)	(1,0)	(1,0)	(1,0)	(1,0)	(1,0)	(1,0)	(1,0)	(1,0)	(1,0)	(1,0)	(1,0)	
L1D -454>	(0,35)	(1,20)	(108,1)	(79,1)	(50,1)	(57,2)	(87,1)	(1,0)	(1,0)	(1,0)	(1,0)	(1,0)	(1,0)	(1,0)	(1,0)	(1,0)	
L1D -453>	(0,2)	(17,1)	(1,0)	(1,0)	(1,0)	(1,0)	(1,0)	(1,0)	(1,0)	(1,0)	(1,0)	(1,0)	(1,0)	(1,0)	(1,0)	(1,0)	
L1D -452>	(0,2)	(1,3)	(83,1)	(426,1)	(-1,1)	(124,1)	(1,0)	(1,0)	(1,0)	(1,0)	(1,0)	(1,0)	(1,0)	(1,0)	(1,0)	(1,0)	
L1D -451>	(2,2)	(-12,1)	(70,1)	(1,1)	(0,1)	(5,1)	(12,1)	(88,1)	(1,0)	(1,0)	(1,0)	(1,0)	(1,0)	(1,0)	(1,0)	(1,0)	
L1D -450>	(97,1)	(366,1)	(38,1)	(0,6)	(2,1)	(1,1)	(1,0)	(1,0)	(1,0)	(1,0)	(1,0)	(1,0)	(1,0)	(1,0)	(1,0)	(1,0)	
L1D -449>	(68,107)	(88,60)	(0,74)	(1,3)	(176,3)	(-1,5)	(352,1)	(264,1)	(386,1)	(5,1)	(1,0)	(1,0)	(1,0)	(1,0)	(1,0)	(1,0)	
L1D -448>	(68,6)	(1,4)	(0,2)	(31,1)	(106,1)	(417,1)	(57,1)	(2,1)	(69,1)	(438,1)	(1,0)	(1,0)	(1,0)	(1,0)	(1,0)	(1,0)	
L1D -447>	(-1,1)	(1,3)	(0,3)	(88,2)	(71,1)	(1,0)	(1,0)	(1,0)	(1,0)	(1,0)	(1,0)	(1,0)	(1,0)	(1,0)	(1,0)	(1,0)	
L1D -446>	(1,8)	(77,3)	(0,2)	(278,1)	(4,1)	(2,1)	(108,1)	(1,0)	(1,0)	(1,0)	(1,0)	(1,0)	(1,0)	(1,0)	(1,0)	(1,0)	
L1D -445>	(0,2)	(68,1)	(88,3)	(1,2)	(458,1)	(23,1)	(2,1)	(-10,1)	(1,0)	(1,0)	(1,0)	(1,0)	(1,0)	(1,0)	(1,0)	(1,0)	
L1D -444>	(0,6)	(1,18)	(88,4)	(2,2)	(71,1)	(69,2)	(272,1)	(17,1)	(1,0)	(1,0)	(1,0)	(1,0)	(1,0)	(1,0)	(1,0)	(1,0)	
L1D -443>	(0,17)	(1,37)	(396,1)	(88,5)	(1,0)	(1,0)	(1,0)	(1,0)	(1,0)	(1,0)	(1,0)	(1,0)	(1,0)	(1,0)	(1,0)	(1,0)	
L1D -442>	(1,108)	(0,7)	(-7,0)	(88,2)	(399,0)	(1,0)	(1,0)	(1,0)	(1,0)	(1,0)	(1,0)	(1,0)	(1,0)	(1,0)	(1,0)	(1,0)	
L1D -441>	(1,22)	(0,97)	(88,34)	(264,1)	(176,23)	(2,0)	(440,0)	(-1,0)	(1,0)	(1,0)	(1,0)	(1,0)	(1,0)	(1,0)	(1,0)	(1,0)	
L1D -440>	(0,100)	(88,37)	(2,0)	(-1,0)	(87,0)	(1,0)	(1,0)	(1,0)	(1,0)	(1,0)	(1,0)	(1,0)	(1,0)	(1,0)	(1,0)	(1,0)	
L1D -439>	(0,65)	(1,10)	(87,5)	(88,97)	(-1,2)	(86,1)	(35,1)	(1,0)	(1,0)	(1,0)	(1,0)	(1,0)	(1,0)	(1,0)	(1,0)	(1,0)	
L1D -438>	(4,2)	(87,2)	(0,5)	(88,1)	(14,1)	(61,2)	(34,1)	(-8,1)	(1,0)	(1,0)	(1,0)	(1,0)	(1,0)	(1,0)	(1,0)	(1,0)	
L1D -437>	(5,1)	(0,2)	(1,1)	(-8,1)	(88,2)	(-2,1)	(29,2)	(1,0)	(1,0)	(1,0)	(1,0)	(1,0)	(1,0)	(1,0)	(1,0)	(1,0)	
L1D -436>	(-1,1)	(73,1)	(88,1)	(1,1)	(63,3)	(0,1)	(107,1)	(69,1)	(1,0)	(1,0)	(1,0)	(1,0)	(1,0)	(1,0)	(1,0)	(1,0)	
L1D -435>	(1,2)	(276,2)	(0,2)	(88,1)	(-6,1)	(23,1)	(1,0)	(1,0)	(1,0)	(1,0)	(1,0)	(1,0)	(1,0)	(1,0)	(1,0)	(1,0)	
L1D -434>	(190,1)	(1,2)	(0,6)	(-1,1)	(88,1)	(398,1)	(5,2)	(-11,1)	(101,1)	(69,1)	(1,0)	(1,0)	(1,0)	(1,0)	(1,0)	(1,0)	
L1D -433>	(5,1)	(0,3)	(88,2)	(1,1)	(328,1)	(1,0)	(1,0)	(1,0)	(1,0)	(1,0)	(1,0)	(1,0)	(1,0)	(1,0)	(1,0)	(1,0)	
L1D -432>	(3,2)	(10,1)	(88,3)	(1,3)	(364,1)	(0,6)	(91,1)	(61,1)	(52,1)	(-20,1)	(2,2)	(-10,1)	(26,1)	(1,0)	(1,0)	(1,0)	
L1D -431>	(1,3)	(23,1)	(88,4)	(17,1)	(0,3)	(47,2)	(1,0)	(1,0)	(1,0)	(1,0)	(1,0)	(1,0)	(1,0)	(1,0)	(1,0)	(1,0)	
L1D -430>	(0,6)	(169,1)	(418,1)	(88,2)	(26,1)	(1,1)	(69,1)	(92,1)	(-2,1)	(286,1)	(32,1)	(100,1)	(1,0)	(1,0)	(1,0)	(1,0)	
L1D -429>	(-29,1)	(1,1)	(56,1)	(0,1)	(238,1)	(431,2)	(88,1)	(29,1)	(411,1)	(1,0)	(1,0)	(1,0)	(1,0)	(1,0)	(1,0)	(1,0)	
L1D -428>	(412,1)	(408,1)	(4,1)	(88,1)	(0,7)	(61,3)	(360,1)	(250,1)	(-38,1)	(2,1)	(1,1)	(89,1)	(1,0)	(1,0)	(1,0)	(1,0)	
L1D -427>	(28,125)	(47,1)	(0,3)	(88,1)	(1,4)	(2,1)	(5,5)	(56,1)	(382,1)	(-5,1)	(1,0)	(1,0)	(1,0)	(1,0)	(1,0)	(1,0)	
L1D -426>	(1,45)	(27,56)	(4,9)	(57,1)	(88,1)	(420,1)	(-2,1)	(0,7)	(69,1)	(17,1)	(54,2)	(5,1)	(40,4)	(3,1)	(-47,1)	(406,1)	
L1D -425>	(388,1)	(1,2)	(5,2)	(0,4)	(412,1)	(2,2)	(91,1)	(1,0)	(1,0)	(1,0)	(1,0)	(1,0)	(1,0)	(1,0)	(1,0)	(1,0)	
L1D -424>	(406,1)	(0,3)	(53,1)	(428,1)	(412,1)	(20,1)	(1,1)	(1,0)	(1,0)	(1,0)	(1,0)	(1,0)	(1,0)	(1,0)	(1,0)	(1,0)	
L1D -423>	(1,1)	(0,4)	(5,3)	(406,1)	(-10,5)	(2,1)	(382,1)	(32,1)	(-2,1)	(1,0)	(1,0)	(1,0)	(1,0)	(1,0)	(1,0)	(1,0)	
L1D -422>	(2,59)	(34,2)	(37,1)	(28,1)	(421,1)	(410,2)	(418,1)	(0,2)	(1,1)	(1,0)	(1,0)	(1,0)	(1,0)	(1,0)	(1,0)	(1,0)	
L1D -421>	(1,2)	(421,2)	(422,2)	(2,1)	(1,0)	(1,0)	(1,0)	(1,0)	(1,0)	(1,0)	(1,0)	(1,0)	(1,0)	(1,0)	(1,0)	(1,0)	
L1D -420>	(1,1)	(0,5)	(421,4)	(402,2)	(394,1)	(388,1)	(53,1)	(-4,1)	(420,1)	(383,1)	(248,1)	(1,0)	(1,0)	(1,0)	(1,0)	(1,0)	
L1D -419>	(1,3)	(11,1)	(0,2)	(88,1)	(419,5)	(2,1)	(26,1)	(56,1)	(420,2)	(-1,1)	(1,0)	(1,0)	(1,0)	(1,0)	(1,0)	(1,0)	
L1D -418>	(45,1)	(0,3)	(34,1)	(-1,1)	(418,7)	(376,1)	(306,1)	(46,1)	(1,3)	(392,1)	(419,3)	(3,1)	(326,1)	(160,1)	(94,1)	(1,0)	
L1D -417>	(-10,94)	(0,0)	(417,0)	(31,0)	(1,0)	(1,0)	(1,0)	(1,0)	(1,0)	(1,0)	(1,0)	(1,0)	(1,0)	(1,0)	(1,0)	(1,0)	
L1D -416>	(0,2)	(415,1)	(1,4)	(53,1)	(416,6)	(5,1)	(404,1)	(58,1)	(-20,1)	(417,2)	(88,2)	(324,1)	(-46,1)	(1,0)	(1,0)	(1,0)	
L1D -415>	(1,4)	(0,4)	(-1,2)	(36,1)	(415,4)	(362,1)	(38,1)	(445,1)	(62,1)	(2,1)	(3,1)	(414,1)	(1,0)	(1,0)	(1,0)	(1,0)	
L1D -414>	(0,6)	(1,4)	(402,1)	(414,4)	(69,1)	(61,2)	(5,2)	(23,1)	(401,1)	(238,1)	(17,1)	(118,1)	(34,1)	(11,1)	(2,1)	(-28,1)	
L1D -413>	(1,6)	(2,5)	(0,5)	(413,4)	(-7,1)	(412,1)	(-1,1)	(153,1)	(414,2)	(11,3)	(1,0)	(1,0)	(1,0)	(1,0)	(1,0)	(1,0)	
L1D -412>	(61,1)	(0,7)	(1,3)	(310,1)	(412,9)	(-1,1)	(413,2)	(5,2)	(146,1)	(394,4)	(1,0)	(1,0)	(1,0)	(1,0)	(1,0)	(1,0)	
L1D -411>	(0,123)	(160,1)	(-7,11)	(408,0)	(1,0)	(1,0)	(1,0)	(1,0)	(1,0)	(1,0)	(1,0)	(1,0)	(1,0)	(1,0)	(1,0)	(1,0)	
L1D -410>	(0,7)	(53,1)	(410,8)	(88,1)	(1,1)	(146,1)	(5,1)	(429,1)	(409,1)	(420,1)	(103,1)	(3,1)	(-10,1)	(-1,1)	(-6,1)	(1,0)	
L1D -409>	(410,1)	(0,4)	(7,1)	(15,1)	(409,4)	(366,1)	(-14,1)	(-1,1)	(1,2)	(88,1)	(1,0)	(1,0)	(1,0)	(1,0)	(1,0)	(1,0)	
L1D -408>	(390,2)	(88,2)	(0,6)	(409,4)	(1,7)	(344,1)	(37,1)	(38,1)	(-1,1)	(2,1)	(408,1)	(7,1)	(1,0)	(1,0)	(1,0)	(1,0)	
L1D -407>	(1,5)	(0,11)	(56,2)	(388,1)	(454,1)	(-7,1)	(407,1)	(4,3)	(9,2)	(-30,1)	(2,3)	(-13,1)	(1,0)	(1,0)	(1,0)	(1,0)	
L1D -406>	(9,40)	(-1,1)	(394,9)	(420,2)	(1,7)	(397,1)	(88,1)	(0,10)	(406,5)	(3,1)	(4,1)	(26,4)	(407,1)	(10,1)	(268,1)	(1,0)	
L1D -405>	(1,5)	(0,3)	(405,1)	(385,0)	(2,2)	(395,91)	(5,1)	(3,1)	(26,0)	(406,0)	(17,0)	(1,0)	(1,0)	(1,0)	(1,0)	(1,0)	
L1D -404>	(-1,1)	(405,3)	(-28,1)	(9,121)	(8,1)	(392,4)	(0,8)	(382,2)	(5,4)	(44,10)	(49,3)	(2,27)	(1,4)	(4,1)	(-10,1)	(404,1)	
L1D -403>	(1,3)	(-1,30)	(88,3)	(-10,1)	(403,2)	(159,1)	(27,1)	(44,8)	(4,3)	(48,3)	(0,4)	(9,1)	(-2,3)	(368,1)	(5,1)	(61,1)	
L1D -402>	(0,11)	(385,3)	(6,1)	(68,1)	(88,3)	(1,7)	(402,4)	(-2,1)	(396,1)	(-1,2)	(4,2)	(390,2)	(382,1)	(16,13)	(9,1)	(3,1)	
L1D -401>	(1,3)	(0,8)	(88,1)	(401,11)	(-10,3)	(11,1)	(2,2)	(-9,1)	(385,2)	(56,1)	(1,0)	(1,0)	(1,0)	(1,0)	(1,0)	(1,0)	
L1D -400>	(1,4)	(400,4)	(0,7)	(392,1)	(-1,1)	(44,20)	(401,4)	(374,1)	(3,2)	(364,1)	(5,23)	(406,1)	(-86,1)	(399,1)	(398,4)	(1,0)	
L1D -399>	(1,3)	(0,7)	(5,6)	(399,3)	(400,1)	(17,1)	(-27,30)	(2,5)	(9,23)	(4,5)	(16,7)	(3,1)	(396,1)	(-1,1)	(397,4)	(1,0)	
L1D -398>	(396,4)	(1,14)	(-95,1)	(2,38)	(0,20)	(502,1)	(386,1)	(406,1)	(4,6)	(3,3)	(32,1)	(17,1)	(398,4)	(-20,1)	(26,11)	(18,1)	
L1D -397>	(1,1)	(2,3)	(0,3)	(397,5)	(398,1)	(-20,1)	(26,1)	(-43,1)	(395,4)	(1,0)	(1,0)	(1,0)	(1,0)	(1,0)	(1,0)	(1,0)	
L1D -396>	(1,4)	(0,5)	(88,2)	(28,1)	(3,2)	(5,2)	(2,1)	(396,5)	(397,3)	(-58,1)	(-1,1)	(400,1)	(4,1)	(424,1)	(394,4)	(1,0)	
L1D -395>	(1,1)	(83,1)	(395,4)	(2,1)	(0,2)	(17,1)	(27,1)	(9,8)	(5,7)	(8,1)	(44,9)	(-1,1)	(-61,1)	(393,4)	(1,0)	(1,0)	
L1D -394>	(37,1)	(376,3)	(0,7)	(71,1)	(-1,2)	(88,1)	(1,3)	(3,1)	(330,1)	(413,1)	(9,3)	(26,3)	(394,3)	(-78,1)	(392,4)	(1,0)	
L1D -393>	(1,2)	(393,3)	(2,4)	(0,2)	(422,1)	(5,1)	(391,4)	(1,0)	(1,0)	(1,0)	(1,0)	(1,0)	(1,0)	(1,0)	(1,0)	(1,0)	
L1D -392>	(393,4)	(392,1)	(0,1)	(160,1)	(5,3)	(1,4)	(391,1)	(380,1)	(390,4)	(1,0)	(1,0)	(1,0)	(1,0)	(1,0)	(1,0)	(1,0)	
L1D -391>	(1,1)	(29,1)	(392,2)	(391,2)	(-60,2)	(368,1)	(44,1)	(389,4)	(1,0)	(1,0)	(1,0)	(1,0)	(1,0)	(1,0)	(1,0)	(1,0)	
L1D -390>	(-2,1)	(389,3)	(24,1)	(391,1)	(390,5)	(5,1)	(392,1)	(0,5)	(1,1)	(258,1)	(-1,1)	(-10,2)	(324,1)	(388,4)	(1,0)	(1,0)	
L1D -389>	(88,1)	(0,4)	(-4,1)	(1,2)	(390,2)	(3,1)	(414,1)	(-69,1)	(385,1)	(-1,1)	(387,4)	(1,0)	(1,0)	(1,0)	(1,0)	(1,0)	
L1D -388>	(0,4)	(126,1)	(380,3)	(374,1)	(388,1)	(-20,1)	(3,1)	(389,4)	(376,1)	(352,1)	(13,1)	(1,1)	(386,4)	(1,0)	(1,0)	(1,0)	
L1D -387>	(1,3)	(2,1)	(114,21)	(388,1)	(387,2)	(152,1)	(-10,1)	(-20,1)	(-16,16)	(56,2)	(-41,1)	(386,1)	(0,2)	(414,1)	(385,4)	(1,0)	
L1D -386>	(386,69)	(0,5)	(-31,5)	(383,0)	(384,2)	(1,0)	(1,0)	(1,0)	(1,0)	(1,0)	(1,0)	(1,0)	(1,0)	(1,0)	(1,0)	(1,0)	
L1D -385>	(-6,1)	(386,1)	(385,2)	(-2,1)	(0,6)	(150,1)	(5,2)	(2,1)	(383,3)	(1,0)	(1,0)	(1,0)	(1,0)	(1,0)	(1,0)	(1,0)	
L1D -384>	(1,2)	(372,2)	(406,1)	(403,2)	(68,1)	(5,1)	(358,1)	(26,1)	(351,1)	(88,1)	(385,2)	(410,1)	(382,4)	(1,0)	(1,0)	(1,0)	
L1D -383>	(0,4)	(90,2)	(383,4)	(382,1)	(5,1)	(-1,1)	(381,4)	(1,0)	(1,0)	(1,0)	(1,0)	(1,0)	(1,0)	(1,0)	(1,0)	(1,0)	
L1D -382>	(394,1)	(388,2)	(0,3)	(382,3)	(44,2)	(32,1)	(146,1)	(380,4)	(-94,1)	(1,0)	(1,0)	(1,0)	(1,0)	(1,0)	(1,0)	(1,0)	
L1D -381>	(0,6)	(114,110)	(152,7)	(357,1)	(126,1)	(82,2)	(366,1)	(29,1)	(44,1)	(85,1)	(414,1)	(379,4)	(382,1)	(-4,1)	(1,0)	(1,0)	
L1D -380>	(380,4)	(-1,1)	(381,2)	(0,4)	(6,2)	(-38,1)	(1,6)	(342,1)	(26,4)	(9,1)	(24,1)	(378,4)	(218,1)	(1,0)	(1,0)	(1,0)	
L1D -379>	(0,3)	(-5,1)	(379,1)	(1,2)	(186,1)	(-8,10)	(-16,5)	(3,1)	(-21,1)	(2,1)	(377,4)	(1,0)	(1,0)	(1,0)	(1,0)	(1,0)	
L1D -378>	(3,1)	(-1,1)	(0,4)	(160,1)	(-98,1)	(376,5)	(2,6)	(128,1)	(4,4)	(5,6)	(18,4)	(1,2)	(-14,1)	(378,1)	(-7,1)	(1,0)	
L1D -377>	(1,6)	(0,4)	(375,4)	(366,1)	(344,1)	(110,4)	(377,5)	(14,1)	(4,5)	(386,12)	(382,4)	(9,6)	(-2,1)	(5,1)	(53,1)	(381,2)	
L1D -376>	(0,11)	(377,3)	(44,2)	(16,13)	(3,1)	(1,3)	(364,1)	(8,1)	(382,1)	(-9,1)	(359,11)	(374,4)	(1,0)	(1,0)	(1,0)	(1,0)	
L1D -375>	(2,3)	(1,3)	(338,1)	(87,1)	(0,19)	(4,1)	(124,1)	(375,9)	(18,14)	(374,1)	(368,1)	(448,1)	(359,17)	(373,4)	(-9,1)	(1,0)	
L1D -374>	(6,2)	(1,5)	(2,1)	(4,2)	(18,1)	(30,1)	(50,2)	(5,2)	(0,2)	(374,1)	(372,4)	(1,0)	(1,0)	(1,0)	(1,0)	(1,0)	
L1D -373>	(1,2)	(0,4)	(6,1)	(373,2)	(4,7)	(5,10)	(382,5)	(16,2)	(125,1)	(371,4)	(1,0)	(1,0)	(1,0)	(1,0)	(1,0)	(1,0)	
L1D -372>	(3,1)	(0,5)	(2,2)	(-50,1)	(20,1)	(5,5)	(1,4)	(126,1)	(44,4)	(4,6)	(26,16)	(18,2)	(9,6)	(381,1)	(482,1)	(370,4)	
L1D -371>	(72,10)	(1,6)	(371,4)	(-1,1)	(0,6)	(127,1)	(-7,1)	(4,1)	(44,3)	(60,1)	(195,1)	(56,1)	(416,1)	(369,4)	(1,0)	(1,0)	
L1D -370>	(6,1)	(370,4)	(1,8)	(0,2)	(44,4)	(-1,2)	(377,1)	(374,2)	(371,1)	(3,5)	(8,1)	(192,1)	(2,1)	(368,4)	(1,0)	(1,0)	
L1D -369>	(39,1)	(4,4)	(2,3)	(0,1)	(369,2)	(-7,1)	(1,5)	(5,6)	(46,2)	(45,4)	(370,1)	(412,1)	(367,4)	(-1,1)	(1,0)	(1,0)	
L1D -368>	(0,40)	(-10,13)	(368,3)	(1,93)	(-9,9)	(44,117)	(45,78)	(366,4)	(-26,3)	(-27,5)	(49,16)	(4,21)	(48,11)	(5,10)	(2,8)	(-5,17)	
L1D -367>	(0,42)	(365,4)	(1,26)	(2,1)	(24,1)	(62,1)	(-7,1)	(17,2)	(5,2)	(3,6)	(367,1)	(44,99)	(-1,5)	(-5,3)	(-9,8)	(-10,5)	
L1D -366>	(331,2)	(9,58)	(6,1)	(385,1)	(88,1)	(0,9)	(-18,1)	(320,1)	(1,6)	(3,3)	(44,4)	(4,1)	(370,1)	(108,1)	(364,4)	(418,1)	
L1D -365>	(60,14)	(-1,2)	(4,1)	(0,5)	(366,2)	(1,3)	(365,3)	(8,7)	(5,3)	(40,1)	(2,1)	(363,4)	(1,0)	(1,0)	(1,0)	(1,0)	
L1D -364>	(362,0)	(5,34)	(9,3)	(49,0)	(44,82)	(0,0)	(3,0)	(-35,0)	(-31,0)	(-26,0)	(-3,0)	(4,0)	(-4,0)	(1,1)	(2,0)	(1,0)	
L1D -363>	(1,8)	(88,2)	(361,4)	(3,2)	(9,48)	(-7,1)	(2,1)	(0,9)	(327,1)	(44,126)	(-36,4)	(48,16)	(4,19)	(-31,2)	(5,3)	(-4,1)	
L1D -362>	(-1,2)	(1,6)	(0,7)	(85,1)	(230,1)	(331,5)	(400,1)	(5,1)	(9,16)	(8,1)	(32,1)	(362,5)	(78,2)	(155,1)	(360,4)	(1,0)	
L1D -361>	(1,5)	(331,7)	(0,46)	(362,2)	(88,17)	(359,4)	(-1,4)	(91,1)	(62,2)	(-87,5)	(330,3)	(-16,2)	(125,1)	(2,1)	(82,1)	(59,1)	
L1D -360>	(0,3)	(88,2)	(1,8)	(358,4)	(130,1)	(5,4)	(4,5)	(8,22)	(9,1)	(36,1)	(37,1)	(3,2)	(331,1)	(363,1)	(-2,1)	(-1,2)	
L1D -359>	(60,78)	(1,5)	(0,3)	(359,1)	(357,4)	(5,3)	(6,1)	(-8,0)	(9,10)	(36,0)	(13,1)	(1,0)	(1,0)	(1,0)	(1,0)	(1,0)	
L1D -358>	(358,3)	(1,8)	(-54,1)	(234,1)	(60,4)	(0,3)	(20,1)	(176,1)	(4,4)	(9,2)	(44,1)	(6,1)	(24,1)	(356,4)	(1,0)	(1,0)	
L1D -357>	(-26,1)	(1,8)	(357,1)	(6,1)	(88,1)	(0,4)	(5,3)	(23,1)	(8,4)	(-8,1)	(355,4)	(352,1)	(1,0)	(1,0)	(1,0)	(1,0)	
L1D -356>	(0,16)	(1,9)	(88,5)	(354,4)	(38,1)	(192,1)	(24,1)	(-18,1)	(-39,55)	(5,67)	(87,1)	(50,1)	(9,1)	(41,39)	(-44,1)	(-1,1)	
L1D -355>	(1,31)	(56,3)	(0,23)	(88,12)	(-14,1)	(359,1)	(355,3)	(356,1)	(2,2)	(353,5)	(4,21)	(5,13)	(9,2)	(31,2)	(-1,1)	(41,1)	
L1D -354>	(1,116)	(0,7)	(2,1)	(88,9)	(302,0)	(352,2)	(9,0)	(5,0)	(-9,0)	(-16,0)	(1,0)	(1,0)	(1,0)	(1,0)	(1,0)	(1,0)	
L1D -353>	(0,61)	(1,83)	(88,64)	(6,0)	(176,0)	(82,0)	(-1,7)	(1,0)	(1,0)	(1,0)	(1,0)	(1,0)	(1,0)	(1,0)	(1,0)	(1,0)	
L1D -352>	(0,81)	(88,59)	(-1,2)	(350,0)	(353,0)	(18,0)	(1,0)	(26,0)	(2,0)	(1,0)	(1,0)	(1,0)	(1,0)	(1,0)	(1,0)	(1,0)	
L1D -351>	(0,33)	(1,12)	(88,69)	(351,0)	(-1,4)	(3,0)	(352,0)	(69,0)	(2,0)	(349,2)	(87,1)	(1,0)	(1,0)	(1,0)	(1,0)	(1,0)	
L1D -350>	(322,123)	(-3,1)	(325,0)	(16,0)	(1,0)	(348,0)	(1,0)	(1,0)	(1,0)	(1,0)	(1,0)	(1,0)	(1,0)	(1,0)	(1,0)	(1,0)	
L1D -349>	(5,1)	(24,1)	(0,4)	(81,1)	(-108,1)	(350,1)	(89,2)	(8,6)	(-37,1)	(56,1)	(64,1)	(-3,1)	(347,4)	(300,1)	(1,0)	(1,0)	
L1D -348>	(0,7)	(349,1)	(2,1)	(1,3)	(348,2)	(26,2)	(320,61)	(6,1)	(-74,1)	(351,1)	(3,1)	(-1,2)	(33,1)	(346,4)	(1,0)	(1,0)	
L1D -347>	(2,1)	(1,1)	(319,46)	(109,1)	(84,2)	(-1,2)	(0,2)	(4,1)	(16,1)	(3,1)	(347,2)	(63,1)	(17,1)	(5,2)	(345,4)	(1,0)	
L1D -346>	(341,23)	(4,106)	(0,11)	(344,1)	(298,0)	(24,0)	(26,0)	(1,0)	(1,0)	(1,0)	(1,0)	(1,0)	(1,0)	(1,0)	(1,0)	(1,0)	
L1D -345>	(2,3)	(1,3)	(0,4)	(345,2)	(88,1)	(222,1)	(24,1)	(47,1)	(23,3)	(5,1)	(343,4)	(344,1)	(1,0)	(1,0)	(1,0)	(1,0)	
L1D -344>	(0,7)	(347,2)	(88,1)	(26,1)	(4,1)	(442,1)	(34,1)	(5,1)	(290,1)	(17,2)	(-2,2)	(344,1)	(1,1)	(342,4)	(1,0)	(1,0)	
L1D -343>	(6,0)	(338,12)	(-3,6)	(162,69)	(343,0)	(-70,0)	(24,0)	(1,0)	(1,0)	(1,0)	(1,0)	(1,0)	(1,0)	(1,0)	(1,0)	(1,0)	
L1D -342>	(-4,28)	(1,7)	(-1,2)	(0,7)	(340,4)	(337,24)	(20,1)	(342,5)	(343,1)	(-20,1)	(-12,1)	(40,2)	(125,1)	(143,1)	(266,1)	(112,1)	
L1D -341>	(0,22)	(341,8)	(5,20)	(4,39)	(358,91)	(339,0)	(124,0)	(9,0)	(346,0)	(1,0)	(1,0)	(1,0)	(1,0)	(1,0)	(1,0)	(1,0)	
L1D -340>	(0,12)	(4,3)	(1,3)	(245,1)	(366,1)	(326,4)	(-24,1)	(324,1)	(91,1)	(340,2)	(142,1)	(83,1)	(338,4)	(3,1)	(1,0)	(1,0)	
L1D -339>	(286,25)	(2,2)	(276,83)	(-1,1)	(114,1)	(0,3)	(4,1)	(3,1)	(336,1)	(337,4)	(-13,1)	(1,1)	(1,0)	(1,0)	(1,0)	(1,0)	
L1D -338>	(1,14)	(-3,66)	(338,3)	(336,1)	(0,2)	(244,1)	(6,0)	(28,0)	(343,11)	(32,0)	(339,1)	(52,0)	(2,0)	(346,0)	(41,1)	(5,1)	
L1D -337>	(342,72)	(18,0)	(104,4)	(117,104)	(-4,26)	(167,10)	(335,2)	(114,73)	(0,1)	(13,0)	(346,0)	(9,0)	(341,0)	(2,0)	(1,0)	(1,0)	
L1D -336>	(341,7)	(196,8)	(220,1)	(1,9)	(9,21)	(38,2)	(16,5)	(0,9)	(50,2)	(345,2)	(326,27)	(164,9)	(245,12)	(366,9)	(83,10)	(334,4)	
L1D -335>	(0,4)	(333,4)	(6,1)	(162,1)	(42,1)	(384,1)	(92,1)	(336,1)	(-16,57)	(4,3)	(376,1)	(327,1)	(-44,1)	(3,1)	(148,1)	(1,1)	
L1D -334>	(334,4)	(0,5)	(1,2)	(337,1)	(4,1)	(75,1)	(91,1)	(-44,1)	(252,1)	(404,1)	(132,1)	(3,1)	(332,4)	(339,1)	(1,0)	(1,0)	
L1D -333>	(0,12)	(5,29)	(9,24)	(4,17)	(41,3)	(331,4)	(1,4)	(-9,1)	(-1,2)	(54,1)	(92,1)	(-61,2)	(294,1)	(2,2)	(40,4)	(14,2)	
L1D -332>	(286,19)	(1,12)	(330,30)	(333,4)	(4,10)	(332,1)	(-1,2)	(50,1)	(-18,1)	(337,1)	(7,3)	(341,2)	(9,1)	(122,1)	(0,3)	(365,1)	
L1D -331>	(332,3)	(331,9)	(124,6)	(1,3)	(41,4)	(330,17)	(155,22)	(83,52)	(326,90)	(367,13)	(366,31)	(245,14)	(365,1)	(196,80)	(164,33)	(358,9)	
L1D -330>	(286,9)	(328,4)	(367,2)	(5,1)	(276,43)	(20,1)	(4,1)	(164,29)	(1,2)	(0,2)	(44,1)	(155,115)	(114,3)	(74,6)	(41,1)	(83,1)	
L1D -329>	(5,1)	(4,6)	(40,13)	(41,1)	(-4,0)	(9,125)	(0,0)	(324,0)	(1,0)	(122,0)	(1,0)	(1,0)	(1,0)	(1,0)	(1,0)	(1,0)	
L1D -328>	(15,69)	(-9,0)	(22,54)	(328,1)	(326,1)	(99,0)	(5,0)	(4,8)	(9,4)	(0,1)	(1,0)	(41,0)	(329,0)	(2,0)	(3,0)	(18,0)	
L1D -327>	(0,8)	(1,9)	(325,4)	(7,99)	(-1,1)	(6,1)	(5,12)	(56,0)	(24,0)	(368,17)	(40,1)	(4,1)	(-10,1)	(26,1)	(3,2)	(-16,2)	
L1D -326>	(2,13)	(1,18)	(0,14)	(329,2)	(4,14)	(146,1)	(9,10)	(18,25)	(40,2)	(41,1)	(3,1)	(-138,1)	(20,1)	(324,4)	(1,0)	(1,0)	
L1D -325>	(41,66)	(5,36)	(4,0)	(9,7)	(323,0)	(1,0)	(40,2)	(1,0)	(1,0)	(1,0)	(1,0)	(1,0)	(1,0)	(1,0)	(1,0)	(1,0)	
L1D -324>	(9,90)	(322,0)	(5,0)	(4,12)	(40,4)	(-44,0)	(41,0)	(0,0)	(-9,1)	(-4,0)	(-5,0)	(335,0)	(16,0)	(1,0)	(-1,0)	(-50,0)	
L1D -323>	(9,37)	(321,0)	(4,1)	(-10,1)	(-45,0)	(41,0)	(44,40)	(5,115)	(40,0)	(1,0)	(-44,0)	(18,0)	(0,0)	(49,4)	(6,0)	(81,0)	
L1D -322>	(5,3)	(323,3)	(41,2)	(86,0)	(3,0)	(350,0)	(24,0)	(-36,0)	(0,1)	(1,0)	(-2,0)	(4,0)	(240,0)	(2,0)	(-53,116)	(320,0)	
L1D -321>	(16,8)	(5,68)	(317,0)	(41,112)	(-9,0)	(1,4)	(316,0)	(0,1)	(40,0)	(-189,0)	(321,0)	(24,0)	(319,2)	(348,9)	(-5,0)	(47,0)	
L1D -320>	(40,23)	(348,68)	(16,51)	(1,16)	(-44,1)	(-12,0)	(347,0)	(4,1)	(5,12)	(41,114)	(9,0)	(-4,0)	(26,0)	(315,0)	(-9,0)	(2,0)	
L1D -319>	(347,88)	(6,0)	(317,0)	(20,0)	(4,0)	(9,26)	(5,0)	(-9,0)	(-5,0)	(-2,0)	(81,0)	(1,0)	(1,0)	(1,0)	(1,0)	(1,0)	
L1D -318>	(9,101)	(4,1)	(323,0)	(16,0)	(5,0)	(44,0)	(1,0)	(1,0)	(1,0)	(1,0)	(1,0)	(1,0)	(1,0)	(1,0)	(1,0)	(1,0)	
L1D -317>	(23,2)	(5,1)	(0,11)	(24,1)	(1,1)	(6,2)	(316,1)	(317,1)	(-13,1)	(358,1)	(2,2)	(328,1)	(315,4)	(1,0)	(1,0)	(1,0)	
L1D -316>	(0,7)	(41,94)	(5,8)	(1,2)	(319,1)	(4,1)	(354,1)	(-1,1)	(-11,1)	(-10,2)	(146,1)	(-8,2)	(17,1)	(314,4)	(1,0)	(1,0)	
L1D -315>	(3,4)	(-5,11)	(-9,3)	(4,11)	(313,4)	(26,1)	(1,4)	(-2,1)	(0,18)	(-13,4)	(317,1)	(319,1)	(-1,1)	(40,49)	(5,5)	(-4,14)	
L1D -314>	(94,1)	(1,7)	(0,8)	(88,2)	(182,1)	(61,2)	(313,1)	(312,3)	(20,1)	(5,13)	(1,0)	(1,0)	(1,0)	(1,0)	(1,0)	(1,0)	
L1D -313>	(0,11)	(313,93)	(6,4)	(1,5)	(24,2)	(-20,1)	(41,1)	(-13,1)	(311,4)	(-1,1)	(1,0)	(1,0)	(1,0)	(1,0)	(1,0)	(1,0)	
L1D -312>	(19,1)	(315,1)	(0,7)	(1,4)	(4,5)	(314,1)	(-4,1)	(18,1)	(310,4)	(35,1)	(44,1)	(264,1)	(1,0)	(1,0)	(1,0)	(1,0)	
L1D -311>	(0,6)	(-1,1)	(24,2)	(18,1)	(-14,1)	(1,3)	(326,1)	(44,1)	(4,1)	(309,4)	(6,2)	(310,1)	(1,0)	(1,0)	(1,0)	(1,0)	
L1D -310>	(313,1)	(4,4)	(60,1)	(1,5)	(0,4)	(6,1)	(-20,1)	(-16,1)	(9,14)	(308,4)	(3,4)	(304,9)	(1,0)	(1,0)	(1,0)	(1,0)	
L1D -309>	(6,5)	(5,2)	(1,2)	(3,3)	(24,2)	(0,6)	(-13,2)	(309,2)	(29,1)	(-1,2)	(125,1)	(307,4)	(19,1)	(1,0)	(1,0)	(1,0)	
L1D -308>	(306,4)	(0,9)	(248,1)	(1,5)	(198,1)	(309,1)	(20,2)	(279,1)	(4,1)	(-9,1)	(6,1)	(308,1)	(8,27)	(-8,4)	(311,1)	(2,2)	
L1D -307>	(0,5)	(306,1)	(6,1)	(258,1)	(311,1)	(-5,1)	(32,1)	(3,1)	(-44,1)	(26,1)	(305,4)	(264,1)	(1,0)	(1,0)	(1,0)	(1,0)	
L1D -306>	(0,88)	(304,0)	(306,11)	(1,0)	(1,0)	(1,0)	(1,0)	(1,0)	(1,0)	(1,0)	(1,0)	(1,0)	(1,0)	(1,0)	(1,0)	(1,0)	
L1D -305>	(6,5)	(83,1)	(0,13)	(1,8)	(321,5)	(24,5)	(26,1)	(43,3)	(305,1)	(-20,1)	(-53,4)	(8,5)	(-44,1)	(303,4)	(311,3)	(1,0)	
L1D -304>	(19,1)	(0,12)	(14,1)	(-24,1)	(-2,1)	(1,2)	(20,5)	(302,5)	(4,3)	(58,1)	(-81,1)	(5,1)	(7,1)	(146,1)	(6,1)	(-71,1)	
L1D -303>	(-20,2)	(0,12)	(3,2)	(24,2)	(-128,1)	(5,1)	(-1,1)	(234,1)	(6,2)	(1,1)	(35,2)	(301,4)	(1,0)	(1,0)	(1,0)	(1,0)	
L1D -302>	(1,5)	(0,22)	(300,6)	(-26,1)	(50,1)	(4,1)	(-100,1)	(354,1)	(302,92)	(26,6)	(287,1)	(19,1)	(146,2)	(305,1)	(307,1)	(-6,1)	
L1D -301>	(2,10)	(6,7)	(0,13)	(299,4)	(-4,9)	(276,1)	(26,3)	(294,1)	(296,1)	(5,1)	(-13,1)	(301,2)	(9,2)	(1,36)	(8,3)	(3,7)	
L1D -300>	(3,1)	(303,1)	(100,1)	(-38,1)	(1,8)	(146,1)	(0,7)	(305,2)	(6,4)	(2,19)	(18,41)	(298,3)	(20,1)	(386,1)	(1,0)	(1,0)	
L1D -299>	(321,71)	(35,1)	(88,2)	(14,4)	(56,1)	(0,10)	(6,2)	(2,7)	(1,88)	(-1,7)	(-110,1)	(76,1)	(388,1)	(17,1)	(296,1)	(297,4)	
L1D -298>	(0,25)	(-80,1)	(296,7)	(301,3)	(297,1)	(110,1)	(2,2)	(-106,1)	(298,1)	(-16,4)	(16,22)	(146,1)	(1,5)	(-3,2)	(152,1)	(299,2)	
L1D -297>	(26,12)	(-20,2)	(0,12)	(24,7)	(297,2)	(299,1)	(6,5)	(225,1)	(2,6)	(296,1)	(5,2)	(49,1)	(260,1)	(295,4)	(1,0)	(1,0)	
L1D -296>	(9,7)	(336,2)	(301,3)	(1,2)	(0,15)	(297,1)	(216,1)	(4,3)	(299,1)	(19,4)	(6,1)	(-9,1)	(294,5)	(258,1)	(305,10)	(300,2)	
L1D -295>	(0,4)	(1,3)	(6,11)	(258,2)	(19,3)	(293,3)	(47,2)	(297,2)	(77,1)	(317,2)	(16,1)	(125,1)	(-136,1)	(167,1)	(-1,1)	(9,1)	
L1D -294>	(334,7)	(17,99)	(297,2)	(291,38)	(-8,32)	(0,13)	(6,104)	(14,12)	(18,5)	(75,2)	(292,4)	(1,5)	(26,12)	(-50,1)	(2,10)	(299,2)	
L1D -293>	(9,11)	(6,5)	(44,1)	(0,9)	(4,1)	(24,4)	(-9,35)	(5,3)	(1,4)	(-1,2)	(35,1)	(22,1)	(291,4)	(26,2)	(315,0)	(12,64)	
L1D -292>	(0,7)	(20,1)	(3,2)	(6,3)	(8,2)	(293,2)	(19,4)	(254,1)	(290,4)	(4,2)	(134,1)	(-1,2)	(-13,96)	(5,1)	(1,3)	(2,1)	
L1D -291>	(294,9)	(291,1)	(293,2)	(-1,1)	(19,1)	(-11,105)	(295,1)	(0,3)	(24,1)	(-20,1)	(301,1)	(288,1)	(289,5)	(131,1)	(307,1)	(20,2)	
L1D -290>	(2,12)	(0,11)	(26,7)	(-9,5)	(330,112)	(288,3)	(331,5)	(-14,1)	(309,1)	(20,3)	(-7,1)	(19,4)	(130,1)	(146,1)	(282,1)	(278,1)	
L1D -289>	(-20,0)	(248,0)	(285,0)	(9,32)	(-13,0)	(5,0)	(41,126)	(40,4)	(2,0)	(6,0)	(0,0)	(1,0)	(1,0)	(1,0)	(1,0)	(1,0)	
L1D -288>	(4,10)	(0,13)	(2,1)	(5,2)	(289,1)	(328,1)	(40,68)	(1,3)	(6,1)	(41,2)	(9,10)	(8,20)	(286,2)	(120,0)	(3,2)	(68,0)	
L1D -287>	(6,2)	(291,1)	(8,95)	(3,2)	(286,1)	(0,7)	(285,1)	(-1,0)	(287,0)	(328,0)	(44,0)	(45,0)	(41,0)	(2,1)	(1,0)	(7,0)	
L1D -286>	(284,4)	(-1,4)	(5,5)	(20,9)	(289,5)	(4,2)	(0,15)	(1,1)	(19,1)	(9,29)	(215,1)	(24,1)	(292,1)	(301,1)	(44,3)	(3,1)	
L1D -285>	(4,27)	(41,7)	(6,9)	(9,8)	(3,10)	(0,21)	(242,1)	(37,6)	(24,4)	(19,1)	(285,6)	(1,4)	(40,2)	(13,1)	(262,1)	(283,4)	
L1D -284>	(19,0)	(40,102)	(9,48)	(4,14)	(6,0)	(282,0)	(0,0)	(1,0)	(-1,0)	(5,1)	(-40,0)	(-84,0)	(20,0)	(-85,0)	(-109,0)	(-213,0)	
L1D -283>	(4,79)	(324,0)	(117,1)	(9,2)	(40,0)	(279,0)	(81,0)	(-5,0)	(0,0)	(41,0)	(-16,0)	(1,0)	(-1,0)	(-41,0)	(44,0)	(-3,0)	
L1D -282>	(84,1)	(19,1)	(280,0)	(41,0)	(188,0)	(287,0)	(94,0)	(299,0)	(285,0)	(0,1)	(271,0)	(1,0)	(2,0)	(44,66)	(8,0)	(40,0)	
L1D -281>	(42,60)	(290,9)	(41,15)	(1,3)	(6,7)	(0,13)	(24,8)	(4,24)	(-20,3)	(256,1)	(26,1)	(285,1)	(2,1)	(279,7)	(283,1)	(76,1)	
L1D -280>	(0,0)	(41,118)	(283,0)	(9,0)	(40,2)	(270,0)	(-44,0)	(4,0)	(284,0)	(-1,0)	(-20,0)	(1,1)	(1,0)	(1,0)	(1,0)	(1,0)	
L1D -279>	(277,4)	(-44,5)	(-20,3)	(283,1)	(24,9)	(0,115)	(40,57)	(1,4)	(-4,6)	(8,47)	(4,88)	(7,2)	(-9,67)	(-121,4)	(41,2)	(113,8)	
L1D -278>	(1,6)	(0,14)	(-2,4)	(5,1)	(281,4)	(272,2)	(2,3)	(20,8)	(19,16)	(44,34)	(-6,3)	(85,3)	(283,3)	(276,4)	(-20,3)	(12,3)	
L1D -277>	(0,100)	(277,4)	(273,41)	(240,1)	(296,0)	(248,0)	(-20,0)	(1,0)	(1,0)	(1,0)	(1,0)	(1,0)	(1,0)	(1,0)	(1,0)	(1,0)	
L1D -276>	(2,8)	(274,8)	(14,3)	(0,15)	(6,6)	(4,3)	(26,6)	(279,7)	(19,16)	(8,3)	(1,3)	(276,2)	(3,1)	(20,14)	(281,3)	(146,1)	
L1D -275>	(36,27)	(275,16)	(1,20)	(276,4)	(26,8)	(5,9)	(0,35)	(-16,15)	(-4,13)	(24,2)	(41,51)	(273,4)	(19,3)	(6,3)	(40,1)	(279,1)	
L1D -274>	(-5,9)	(2,23)	(20,2)	(-49,8)	(8,20)	(272,4)	(280,1)	(-20,2)	(0,26)	(4,5)	(1,16)	(264,1)	(-6,2)	(-120,1)	(276,1)	(279,3)	
L1D -273>	(277,107)	(1,26)	(24,1)	(6,4)	(17,1)	(411,3)	(419,0)	(412,3)	(0,7)	(-20,1)	(273,3)	(420,2)	(-1,1)	(275,0)	(271,2)	(9,0)	
L1D -272>	(16,16)	(0,19)	(272,3)	(50,2)	(295,1)	(270,11)	(88,2)	(4,3)	(275,4)	(-1,4)	(273,2)	(252,1)	(20,4)	(1,11)	(19,1)	(2,3)	
L1D -271>	(6,0)	(271,0)	(8,0)	(41,71)	(54,0)	(2,0)	(-20,0)	(0,2)	(-1,0)	(50,0)	(3,0)	(1,0)	(275,0)	(1,0)	(1,0)	(1,0)	
L1D -270>	(-1,1)	(2,1)	(4,1)	(0,5)	(40,6)	(268,1)	(275,1)	(222,1)	(-9,84)	(281,0)	(-20,1)	(-88,0)	(20,4)	(241,0)	(-12,0)	(1,5)	
L1D -269>	(26,6)	(267,2)	(3,119)	(4,1)	(6,2)	(266,1)	(0,8)	(1,4)	(-6,1)	(16,11)	(-20,4)	(29,1)	(268,5)	(13,12)	(-2,1)	(24,2)	
L1D -268>	(26,12)	(-26,2)	(18,2)	(20,27)	(0,23)	(6,3)	(2,22)	(19,53)	(5,7)	(-20,6)	(266,4)	(1,9)	(271,2)	(10,1)	(273,1)	(-7,2)	
L1D -267>	(1,18)	(420,74)	(412,64)	(265,5)	(19,2)	(24,9)	(411,24)	(29,3)	(2,4)	(88,12)	(0,20)	(263,10)	(416,1)	(419,2)	(6,2)	(271,2)	
L1D -266>	(268,1)	(0,10)	(1,99)	(277,1)	(2,2)	(267,3)	(6,0)	(88,9)	(-20,1)	(20,0)	(4,2)	(19,5)	(-1,0)	(269,0)	(174,0)	(266,0)	
L1D -265>	(0,34)	(262,0)	(1,4)	(24,0)	(88,66)	(9,0)	(263,0)	(6,0)	(26,0)	(19,0)	(265,0)	(267,0)	(1,0)	(1,0)	(1,0)	(1,0)	
L1D -264>	(0,118)	(20,0)	(-1,2)	(88,51)	(24,0)	(267,0)	(1,4)	(265,0)	(-20,0)	(262,0)	(264,0)	(206,0)	(1,0)	(1,0)	(1,0)	(1,0)	
L1D -263>	(263,1)	(0,48)	(86,1)	(24,3)	(261,2)	(1,9)	(88,72)	(87,1)	(29,1)	(220,0)	(4,0)	(26,1)	(-42,1)	(-1,2)	(-20,0)	(2,0)	
L1D -262>	(260,4)	(-18,2)	(20,25)	(2,7)	(267,1)	(-12,2)	(265,1)	(4,1)	(219,1)	(19,4)	(263,1)	(322,1)	(0,8)	(6,4)	(146,1)	(-20,4)	
L1D -261>	(24,8)	(26,51)	(6,6)	(0,17)	(1,10)	(10,11)	(40,21)	(-20,7)	(19,2)	(261,6)	(259,4)	(252,1)	(18,1)	(224,1)	(-9,98)	(16,1)	
L1D -260>	(0,8)	(2,7)	(-26,2)	(1,6)	(258,4)	(4,1)	(265,2)	(296,1)	(272,1)	(20,7)	(-73,1)	(92,1)	(6,2)	(10,1)	(262,1)	(72,1)	
L1D -259>	(3,12)	(1,11)	(0,15)	(257,4)	(261,2)	(220,5)	(24,3)	(10,5)	(259,5)	(239,1)	(240,1)	(218,2)	(2,2)	(6,2)	(346,1)	(13,3)	
L1D -258>	(9,4)	(62,125)	(1,32)	(-20,1)	(283,1)	(20,2)	(0,3)	(256,1)	(76,1)	(2,0)	(186,0)	(257,0)	(61,0)	(1,0)	(1,0)	(1,0)	
L1D -257>	(0,53)	(98,77)	(6,0)	(99,5)	(24,3)	(60,93)	(-20,0)	(261,0)	(257,0)	(97,0)	(26,0)	(61,13)	(240,0)	(2,0)	(1,1)	(1,0)	
L1D -256>	(251,21)	(1,123)	(18,1)	(20,6)	(239,1)	(254,1)	(255,1)	(259,1)	(0,3)	(-26,1)	(9,3)	(19,1)	(8,4)	(5,0)	(257,0)	(248,0)	
L1D -255>	(266,1)	(84,90)	(0,91)	(250,57)	(218,1)	(26,4)	(24,1)	(20,1)	(253,2)	(257,1)	(19,1)	(-20,1)	(259,1)	(22,0)	(262,0)	(1,0)	
L1D -254>	(2,22)	(-12,7)	(257,3)	(-20,10)	(0,11)	(1,5)	(19,9)	(-16,3)	(20,45)	(-34,2)	(6,3)	(259,1)	(28,1)	(247,2)	(38,1)	(252,5)	
L1D -253>	(294,5)	(8,32)	(251,4)	(253,15)	(1,8)	(6,3)	(-1,1)	(0,17)	(17,2)	(3,2)	(7,1)	(-13,1)	(-20,9)	(-18,1)	(208,1)	(-22,1)	
L1D -252>	(2,4)	(-20,4)	(20,1)	(-26,1)	(0,12)	(5,5)	(19,5)	(9,15)	(4,5)	(252,2)	(250,4)	(-9,93)	(212,1)	(1,6)	(240,1)	(-12,2)	
L1D -251>	(1,81)	(3,1)	(-20,1)	(7,1)	(4,0)	(-31,0)	(249,0)	(0,0)	(42,0)	(19,0)	(1,0)	(1,0)	(1,0)	(1,0)	(1,0)	(1,0)	
L1D -250>	(84,52)	(-18,2)	(1,2)	(248,2)	(250,1)	(4,2)	(20,0)	(257,1)	(2,8)	(19,3)	(0,6)	(7,0)	(-20,4)	(273,0)	(290,80)	(291,0)	
L1D -249>	(289,30)	(1,46)	(24,24)	(8,4)	(249,5)	(26,5)	(0,15)	(247,4)	(43,3)	(19,3)	(-36,12)	(6,3)	(-20,1)	(-48,3)	(240,1)	(3,10)	
L1D -248>	(19,0)	(4,0)	(-37,0)	(0,0)	(9,0)	(5,0)	(40,69)	(2,0)	(26,0)	(41,5)	(20,0)	(1,0)	(288,0)	(-20,0)	(249,0)	(488,0)	
L1D -247>	(26,33)	(247,12)	(4,6)	(245,4)	(249,2)	(0,11)	(1,115)	(287,2)	(5,2)	(226,7)	(9,4)	(8,15)	(273,1)	(244,1)	(288,1)	(-1,3)	
L1D -246>	(244,4)	(-16,6)	(5,2)	(-2,1)	(287,4)	(0,8)	(20,4)	(19,19)	(3,1)	(225,2)	(1,8)	(50,1)	(8,107)	(7,118)	(16,19)	(-1,4)	
L1D -245>	(250,90)	(-6,10)	(8,3)	(243,0)	(245,1)	(0,4)	(13,17)	(41,0)	(26,0)	(24,2)	(-20,1)	(1,2)	(5,2)	(4,2)	(2,1)	(247,1)	
L1D -244>	(5,91)	(2,3)	(4,5)	(242,0)	(-20,0)	(19,0)	(146,0)	(9,6)	(1,1)	(-6,0)	(0,0)	(20,1)	(-12,0)	(282,0)	(247,0)	(6,0)	
L1D -243>	(117,1)	(-4,4)	(4,116)	(3,2)	(5,126)	(0,0)	(-9,8)	(279,15)	(239,3)	(24,1)	(9,72)	(245,0)	(243,0)	(-1,0)	(248,0)	(1,0)	
L1D -242>	(238,0)	(244,0)	(-26,0)	(2,0)	(26,0)	(235,0)	(0,2)	(1,0)	(-1,0)	(-10,0)	(5,31)	(44,82)	(206,0)	(20,1)	(9,0)	(49,0)	
L1D -241>	(5,64)	(24,14)	(241,16)	(26,39)	(0,16)	(9,2)	(40,73)	(243,1)	(44,1)	(2,3)	(-20,4)	(29,4)	(1,5)	(239,6)	(3,1)	(-2,1)	
L1D -240>	(24,2)	(5,108)	(41,1)	(4,9)	(0,23)	(-88,1)	(20,12)	(19,7)	(202,1)	(238,6)	(40,55)	(239,9)	(247,1)	(448,1)	(241,3)	(-4,1)	
L1D -239>	(-120,1)	(19,1)	(239,2)	(5,0)	(1,7)	(40,79)	(-9,0)	(243,10)	(0,30)	(-4,2)	(244,0)	(41,20)	(210,0)	(-135,0)	(-3,1)	(234,0)	
L1D -238>	(-42,1)	(240,1)	(-10,9)	(5,12)	(0,3)	(228,1)	(239,1)	(238,0)	(-20,0)	(-9,0)	(2,0)	(12,2)	(4,0)	(20,3)	(-44,76)	(40,20)	
L1D -237>	(-9,5)	(239,6)	(0,32)	(237,4)	(-20,10)	(4,3)	(6,4)	(235,4)	(7,3)	(44,1)	(-6,1)	(84,1)	(29,4)	(232,1)	(24,3)	(278,1)	
L1D -236>	(2,5)	(0,13)	(234,4)	(229,1)	(19,5)	(-18,1)	(272,1)	(88,1)	(-20,4)	(-14,1)	(326,1)	(243,1)	(241,3)	(264,1)	(20,6)	(1,7)	
L1D -235>	(235,14)	(24,6)	(2,4)	(0,13)	(233,4)	(5,87)	(41,11)	(-20,4)	(374,2)	(20,1)	(1,5)	(16,2)	(196,2)	(237,1)	(178,1)	(-26,1)	
L1D -234>	(4,26)	(0,33)	(-18,7)	(40,3)	(-6,5)	(1,8)	(-9,13)	(232,4)	(-5,9)	(19,7)	(2,6)	(-4,12)	(275,1)	(243,7)	(288,2)	(5,9)	
L1D -233>	(17,68)	(229,3)	(231,4)	(24,10)	(-20,1)	(233,21)	(6,2)	(0,10)	(1,8)	(238,2)	(227,9)	(3,3)	(206,1)	(202,1)	(-48,1)	(235,3)	
L1D -232>	(0,14)	(9,33)	(233,16)	(1,6)	(202,5)	(2,3)	(19,10)	(232,4)	(230,4)	(6,5)	(4,1)	(-20,13)	(20,10)	(-22,1)	(14,3)	(273,1)	
L1D -231>	(-16,3)	(-20,3)	(231,3)	(-1,3)	(0,28)	(229,3)	(7,3)	(233,6)	(224,2)	(202,2)	(29,1)	(19,1)	(1,6)	(6,2)	(235,1)	(88,1)	
L1D -230>	(4,24)	(2,7)	(0,13)	(8,110)	(38,1)	(-6,2)	(223,4)	(1,7)	(20,12)	(-18,3)	(229,3)	(-29,1)	(259,3)	(228,6)	(26,1)	(7,3)	
L1D -229>	(0,92)	(374,8)	(24,2)	(-9,25)	(3,1)	(26,4)	(4,4)	(7,5)	(231,3)	(-10,93)	(2,2)	(227,2)	(229,0)	(222,0)	(1,5)	(236,0)	
L1D -228>	(0,16)	(32,8)	(-27,10)	(264,1)	(261,3)	(19,1)	(254,1)	(-20,15)	(-18,4)	(226,5)	(221,2)	(52,1)	(230,4)	(269,1)	(1,4)	(140,1)	
L1D -227>	(227,29)	(0,15)	(8,8)	(225,4)	(1,13)	(188,15)	(182,1)	(229,6)	(20,1)	(47,1)	(24,1)	(88,2)	(5,1)	(19,2)	(-20,9)	(6,4)	
L1D -226>	(2,4)	(6,6)	(-26,3)	(0,17)	(-3,5)	(1,6)	(-20,2)	(232,2)	(224,4)	(271,2)	(38,1)	(246,1)	(88,2)	(187,9)	(20,2)	(229,2)	
L1D -225>	(225,67)	(24,20)	(26,5)	(5,8)	(1,8)	(-20,24)	(0,15)	(234,12)	(223,4)	(41,14)	(29,1)	(218,1)	(3,2)	(412,1)	(19,5)	(-36,1)	
L1D -224>	(20,17)	(0,19)	(-20,7)	(19,20)	(224,14)	(2,4)	(4,3)	(6,2)	(222,4)	(-6,2)	(225,8)	(286,1)	(-4,9)	(-70,1)	(26,15)	(5,1)	
L1D -223>	(0,19)	(225,6)	(2,12)	(223,21)	(221,4)	(40,1)	(252,2)	(7,8)	(-109,1)	(227,1)	(-20,15)	(1,44)	(26,1)	(3,7)	(-16,13)	(19,3)	
L1D -222>	(1,25)	(18,35)	(0,13)	(-16,2)	(14,2)	(222,3)	(26,2)	(220,5)	(-20,9)	(215,1)	(296,1)	(20,9)	(6,1)	(4,3)	(2,20)	(117,1)	
L1D -221>	(0,13)	(-1,3)	(221,16)	(29,1)	(1,101)	(219,4)	(2,27)	(6,3)	(266,1)	(3,1)	(24,1)	(17,1)	(214,1)	(223,1)	(228,2)	(-20,1)	
L1D -220>	(16,44)	(20,4)	(0,17)	(1,12)	(-26,5)	(-18,2)	(-10,55)	(218,4)	(-20,16)	(225,3)	(253,1)	(5,3)	(6,2)	(227,3)	(280,1)	(284,1)	
L1D -219>	(6,3)	(-75,2)	(219,90)	(0,31)	(3,9)	(217,4)	(246,3)	(29,1)	(224,4)	(-20,16)	(237,1)	(2,5)	(19,3)	(13,1)	(125,1)	(412,1)	
L1D -218>	(216,5)	(-26,2)	(28,1)	(7,1)	(19,2)	(2,20)	(0,16)	(117,1)	(249,28)	(4,4)	(34,1)	(276,1)	(219,1)	(272,1)	(290,1)	(-96,1)	
L1D -217>	(217,6)	(215,4)	(6,2)	(1,7)	(0,14)	(246,4)	(224,5)	(29,9)	(-36,1)	(-1,2)	(26,16)	(19,6)	(240,1)	(-20,4)	(2,1)	(12,1)	
L1D -216>	(0,24)	(223,5)	(2,13)	(8,16)	(26,12)	(14,2)	(20,71)	(92,2)	(1,7)	(214,6)	(9,4)	(196,1)	(216,2)	(28,1)	(-20,4)	(4,3)	
L1D -215>	(217,1)	(213,2)	(1,7)	(215,2)	(5,2)	(0,89)	(2,10)	(222,3)	(-20,3)	(6,2)	(7,1)	(9,1)	(-1,1)	(224,1)	(-4,1)	(24,1)	
L1D -214>	(0,126)	(19,0)	(1,3)	(-2,0)	(221,1)	(214,1)	(212,0)	(-20,1)	(213,0)	(219,0)	(276,0)	(20,0)	(215,0)	(1,0)	(1,0)	(1,0)	
L1D -213>	(211,0)	(220,0)	(0,69)	(-20,0)	(217,0)	(213,0)	(18,0)	(1,2)	(1,0)	(1,0)	(1,0)	(1,0)	(1,0)	(1,0)	(1,0)	(1,0)	
L1D -212>	(4,33)	(9,115)	(1,5)	(-20,11)	(5,6)	(0,34)	(3,8)	(210,4)	(392,1)	(253,1)	(245,2)	(6,1)	(-21,1)	(248,2)	(217,2)	(-159,1)	
L1D -211>	(5,10)	(1,13)	(211,32)	(6,9)	(0,57)	(212,9)	(198,2)	(-10,124)	(3,8)	(-20,11)	(209,4)	(24,3)	(4,15)	(29,5)	(2,1)	(218,1)	
L1D -210>	(0,26)	(216,4)	(210,2)	(208,4)	(4,3)	(198,2)	(3,2)	(250,3)	(1,7)	(35,1)	(-12,2)	(-114,1)	(36,1)	(206,1)	(-11,1)	(251,1)	
L1D -209>	(207,4)	(29,10)	(26,55)	(1,5)	(0,37)	(24,14)	(6,2)	(250,1)	(209,6)	(208,1)	(28,1)	(19,3)	(-116,1)	(246,1)	(224,1)	(213,1)	
L1D -208>	(40,38)	(41,68)	(5,25)	(19,1)	(9,77)	(180,0)	(-20,0)	(209,0)	(6,1)	(0,3)	(208,0)	(20,0)	(3,0)	(4,0)	(2,0)	(1,0)	
L1D -207>	(40,57)	(9,73)	(20,0)	(7,0)	(370,0)	(4,0)	(0,1)	(-5,0)	(207,0)	(196,0)	(208,0)	(2,0)	(47,0)	(1,0)	(209,0)	(230,0)	
L1D -206>	(5,5)	(4,10)	(246,22)	(-26,3)	(3,106)	(0,30)	(247,4)	(8,8)	(14,2)	(206,5)	(6,3)	(20,4)	(2,10)	(235,1)	(1,11)	(204,6)	
L1D -205>	(0,56)	(9,7)	(5,5)	(1,17)	(212,6)	(-16,4)	(40,3)	(203,3)	(207,5)	(3,2)	(242,3)	(4,12)	(234,2)	(88,1)	(6,13)	(-20,2)	
L1D -204>	(5,22)	(9,1)	(0,6)	(8,6)	(168,3)	(4,1)	(-18,0)	(241,0)	(1,4)	(41,116)	(169,3)	(202,0)	(6,0)	(146,0)	(196,0)	(240,0)	
L1D -203>	(41,54)	(5,15)	(40,98)	(193,2)	(9,41)	(4,7)	(-4,1)	(49,0)	(0,0)	(203,0)	(3,0)	(1,0)	(-1,0)	(-161,0)	(36,0)	(2,0)	
L1D -202>	(4,21)	(9,85)	(-4,0)	(44,18)	(193,61)	(0,0)	(13,0)	(40,0)	(242,0)	(41,0)	(-9,2)	(5,1)	(205,0)	(1,0)	(1,0)	(1,0)	
L1D -201>	(193,20)	(29,8)	(9,55)	(0,39)	(5,10)	(242,12)	(199,4)	(197,7)	(41,35)	(-20,2)	(40,6)	(8,14)	(192,5)	(190,1)	(2,2)	(165,1)	
L1D -200>	(40,48)	(41,19)	(5,62)	(198,12)	(199,2)	(1,10)	(0,23)	(4,19)	(9,2)	(6,1)	(-2,5)	(-34,1)	(402,1)	(2,2)	(200,2)	(3,2)	
L1D -199>	(-20,0)	(5,98)	(2,0)	(-8,0)	(41,41)	(44,0)	(-26,0)	(9,3)	(0,1)	(452,0)	(1,66)	(1,0)	(1,0)	(1,0)	(1,0)	(1,0)	
L1D -198>	(5,0)	(4,1)	(202,1)	(40,103)	(188,1)	(-35,0)	(0,3)	(-40,0)	(-28,0)	(-9,121)	(41,2)	(-202,1)	(-44,10)	(1,2)	(1,0)	(1,0)	
L1D -197>	(0,30)	(198,3)	(4,4)	(9,7)	(-61,12)	(3,16)	(-16,13)	(-10,60)	(6,3)	(192,3)	(195,4)	(226,3)	(-83,2)	(158,1)	(199,5)	(-6,1)	
L1D -196>	(1,3)	(196,43)	(0,21)	(-18,7)	(-14,4)	(4,1)	(-26,1)	(225,2)	(-20,4)	(424,1)	(7,2)	(194,5)	(-50,1)	(5,2)	(232,1)	(-16,1)	
L1D -195>	(1,6)	(0,25)	(26,1)	(41,6)	(195,15)	(200,1)	(292,1)	(5,1)	(193,5)	(68,1)	(197,1)	(6,1)	(9,1)	(386,1)	(1,0)	(1,0)	
L1D -194>	(2,1)	(-12,1)	(194,1)	(0,4)	(245,0)	(-8,1)	(41,114)	(5,41)	(9,38)	(1,4)	(40,2)	(193,0)	(1,0)	(1,0)	(1,0)	(1,0)	
L1D -193>	(-44,0)	(0,1)	(13,122)	(233,0)	(76,0)	(234,1)	(193,0)	(-9,0)	(165,0)	(44,11)	(199,5)	(198,4)	(1,0)	(1,0)	(1,0)	(1,0)	
L1D -192>	(0,22)	(1,3)	(140,1)	(193,6)	(-10,1)	(7,5)	(229,1)	(-4,2)	(-11,1)	(20,78)	(117,1)	(190,4)	(197,27)	(12,1)	(9,2)	(201,1)	
L1D -191>	(20,38)	(193,7)	(422,1)	(0,15)	(152,1)	(172,1)	(9,4)	(6,2)	(1,5)	(-20,3)	(29,1)	(2,3)	(220,2)	(191,1)	(189,4)	(7,2)	
L1D -190>	(5,109)	(1,7)	(-8,3)	(0,12)	(44,2)	(146,1)	(188,8)	(32,1)	(102,7)	(114,1)	(91,1)	(101,1)	(190,2)	(162,1)	(8,13)	(3,1)	
L1D -189>	(2,0)	(6,1)	(1,1)	(0,0)	(220,0)	(204,0)	(45,0)	(3,0)	(13,5)	(244,0)	(234,0)	(187,0)	(212,0)	(4,0)	(-9,80)	(102,0)	
L1D -188>	(0,12)	(186,4)	(-6,2)	(211,2)	(195,1)	(193,1)	(134,1)	(-18,1)	(28,1)	(-168,1)	(5,55)	(1,7)	(-190,1)	(2,1)	(33,3)	(-8,3)	
L1D -187>	(13,91)	(187,2)	(2,1)	(88,0)	(-20,1)	(0,0)	(185,0)	(1,0)	(1,0)	(1,0)	(1,0)	(1,0)	(1,0)	(1,0)	(1,0)	(1,0)	
L1D -186>	(1,3)	(-60,1)	(190,11)	(24,5)	(464,1)	(0,15)	(-169,1)	(232,1)	(360,1)	(188,1)	(6,3)	(4,2)	(184,4)	(32,2)	(176,1)	(-6,2)	
L1D -185>	(104,57)	(19,1)	(0,19)	(1,6)	(29,3)	(-1,1)	(34,2)	(33,2)	(90,27)	(45,7)	(180,1)	(-4,1)	(165,1)	(5,1)	(183,4)	(1,0)	
L1D -184>	(40,3)	(7,3)	(45,6)	(182,4)	(0,24)	(1,12)	(26,2)	(193,14)	(162,14)	(184,1)	(-142,1)	(24,1)	(104,33)	(2,1)	(90,19)	(135,13)	
L1D -183>	(0,27)	(6,6)	(2,50)	(181,4)	(150,1)	(7,2)	(88,1)	(13,1)	(1,3)	(94,72)	(104,50)	(-9,7)	(33,2)	(-7,1)	(382,1)	(164,1)	
L1D -182>	(94,68)	(-26,2)	(1,5)	(0,14)	(-9,11)	(4,3)	(88,3)	(-86,1)	(406,1)	(163,1)	(30,1)	(44,1)	(2,1)	(180,4)	(20,1)	(146,1)	
L1D -181>	(1,10)	(5,3)	(142,1)	(104,27)	(0,19)	(88,2)	(183,4)	(-192,1)	(6,1)	(179,4)	(-1,1)	(-114,1)	(2,1)	(-5,1)	(261,1)	(27,1)	
L1D -180>	(-9,35)	(34,1)	(17,0)	(50,1)	(13,66)	(0,0)	(178,0)	(88,0)	(-20,0)	(1,2)	(1,0)	(1,0)	(1,0)	(1,0)	(1,0)	(1,0)	
L1D -179>	(-1,84)	(179,0)	(4,0)	(0,0)	(88,0)	(1,0)	(1,0)	(1,0)	(1,0)	(1,0)	(1,0)	(1,0)	(1,0)	(1,0)	(1,0)	(1,0)	
L1D -178>	(1,106)	(0,6)	(88,12)	(98,1)	(2,0)	(-134,0)	(186,0)	(9,0)	(176,0)	(1,0)	(1,0)	(1,0)	(1,0)	(1,0)	(1,0)	(1,0)	
L1D -177>	(286,29)	(276,96)	(1,118)	(0,57)	(-1,13)	(170,1)	(177,0)	(88,79)	(3,0)	(35,0)	(1,0)	(1,0)	(1,0)	(1,0)	(1,0)	(1,0)	
L1D -176>	(0,116)	(264,1)	(-1,0)	(88,97)	(177,0)	(170,0)	(13,0)	(172,0)	(1,0)	(1,0)	(1,0)	(1,0)	(1,0)	(1,0)	(1,0)	(1,0)	
L1D -175>	(0,52)	(1,1)	(173,0)	(177,3)	(88,68)	(-168,5)	(170,23)	(6,4)	(9,73)	(87,1)	(-1,0)	(171,1)	(-53,0)	(179,0)	(5,0)	(144,0)	
L1D -174>	(50,21)	(1,8)	(28,22)	(168,118)	(0,42)	(418,1)	(4,7)	(13,14)	(20,7)	(-3,91)	(-5,27)	(87,14)	(106,0)	(6,0)	(343,0)	(1,0)	
L1D -173>	(147,1)	(-1,49)	(28,110)	(171,0)	(0,1)	(86,5)	(6,1)	(174,0)	(33,0)	(342,0)	(1,1)	(1,0)	(1,0)	(1,0)	(1,0)	(1,0)	
L1D -172>	(2,0)	(-42,0)	(5,0)	(9,18)	(170,0)	(-18,0)	(68,0)	(167,11)	(0,4)	(50,0)	(117,0)	(-11,111)	(172,3)	(178,0)	(1,0)	(1,0)	
L1D -171>	(171,75)	(177,32)	(-9,118)	(4,32)	(173,1)	(172,2)	(1,3)	(90,34)	(9,1)	(169,0)	(0,0)	(3,1)	(5,0)	(118,4)	(-4,21)	(167,3)	
L1D -170>	(33,68)	(170,4)	(-168,8)	(0,6)	(6,40)	(9,0)	(-4,14)	(-167,2)	(177,0)	(20,1)	(-50,0)	(1,4)	(4,0)	(-11,0)	(44,0)	(168,14)	
L1D -169>	(186,0)	(27,0)	(169,0)	(1,1)	(0,1)	(168,65)	(-174,0)	(177,0)	(-170,0)	(210,0)	(167,0)	(-1,0)	(3,0)	(10,0)	(1,0)	(1,0)	
L1D -168>	(-4,2)	(168,0)	(87,8)	(1,39)	(-3,125)	(-6,5)	(-11,5)	(-320,0)	(170,0)	(343,102)	(338,4)	(9,68)	(3,0)	(0,2)	(2,0)	(26,0)	
L1D -167>	(4,4)	(-6,0)	(0,0)	(157,0)	(125,0)	(40,0)	(86,9)	(167,0)	(9,7)	(5,41)	(173,0)	(20,1)	(41,80)	(160,0)	(3,0)	(168,0)	
L1D -166>	(0,5)	(1,15)	(206,5)	(167,14)	(38,5)	(384,1)	(2,2)	(-9,16)	(-4,83)	(168,7)	(280,1)	(49,1)	(-41,1)	(158,2)	(5,13)	(164,1)	
L1D -165>	(0,5)	(53,1)	(32,24)	(158,99)	(8,2)	(4,6)	(154,4)	(-8,5)	(9,21)	(159,33)	(1,5)	(206,19)	(160,5)	(41,2)	(246,0)	(3,1)	
L1D -164>	(-6,18)	(5,119)	(41,2)	(169,44)	(9,2)	(165,2)	(-4,1)	(162,1)	(1,2)	(91,1)	(2,1)	(164,1)	(0,6)	(154,11)	(-3,19)	(118,0)	
L1D -163>	(9,35)	(40,103)	(-3,5)	(162,1)	(6,0)	(41,11)	(163,0)	(-4,0)	(338,0)	(0,0)	(161,0)	(27,0)	(4,2)	(1,0)	(1,0)	(1,0)	
L1D -162>	(-9,0)	(4,116)	(9,75)	(5,32)	(1,0)	(-4,18)	(152,1)	(198,0)	(40,22)	(-3,0)	(203,0)	(202,0)	(41,0)	(122,2)	(243,0)	(0,0)	
L1D -161>	(-14,0)	(9,0)	(162,0)	(20,0)	(-5,0)	(5,40)	(49,0)	(85,0)	(1,0)	(44,112)	(206,0)	(202,0)	(41,0)	(84,0)	(161,0)	(-8,0)	
L1D -160>	(12,15)	(5,46)	(0,24)	(1,36)	(158,13)	(-5,2)	(2,39)	(156,10)	(-11,13)	(26,2)	(160,3)	(161,4)	(157,2)	(3,4)	(-242,3)	(392,1)	
L1D -159>	(410,1)	(5,10)	(-99,38)	(-98,3)	(41,120)	(-3,3)	(9,6)	(156,1)	(2,1)	(40,1)	(1,0)	(1,0)	(1,0)	(1,0)	(1,0)	(1,0)	
L1D -158>	(81,0)	(-39,23)	(5,30)	(4,0)	(40,84)	(0,1)	(162,1)	(9,5)	(198,0)	(-46,1)	(41,85)	(-178,0)	(1,0)	(-3,22)	(-8,0)	(-9,3)	
L1D -157>	(-2,5)	(0,14)	(1,9)	(-1,5)	(156,102)	(-14,41)	(4,16)	(157,14)	(198,6)	(3,96)	(5,17)	(-121,16)	(155,4)	(-9,16)	(13,9)	(7,1)	
L1D -156>	(-14,124)	(0,12)	(7,10)	(3,5)	(-18,1)	(123,1)	(157,5)	(-10,6)	(371,1)	(1,2)	(6,1)	(159,1)	(154,4)	(158,30)	(117,4)	(23,1)	
L1D -155>	(157,2)	(156,10)	(154,78)	(-14,7)	(0,1)	(155,0)	(2,0)	(122,0)	(153,0)	(219,0)	(1,0)	(1,0)	(1,0)	(1,0)	(1,0)	(1,0)	
L1D -154>	(-14,85)	(156,14)	(-1,0)	(-25,5)	(41,78)	(9,8)	(5,30)	(-134,0)	(154,0)	(81,0)	(158,1)	(155,0)	(1,0)	(1,0)	(1,0)	(1,0)	
L1D -153>	(154,73)	(27,1)	(1,6)	(0,7)	(156,75)	(157,24)	(12,8)	(158,34)	(-14,12)	(-9,2)	(40,4)	(-5,2)	(153,3)	(4,2)	(155,3)	(151,2)	
L1D -152>	(0,7)	(153,1)	(99,0)	(152,1)	(12,1)	(-8,5)	(150,1)	(132,0)	(7,1)	(44,5)	(140,90)	(172,0)	(1,2)	(32,19)	(141,11)	(142,3)	
L1D -151>	(0,13)	(1,6)	(-304,1)	(151,5)	(5,1)	(-126,1)	(389,1)	(152,2)	(17,1)	(149,4)	(-13,1)	(-5,1)	(284,1)	(3,1)	(-34,1)	(29,1)	
L1D -150>	(69,1)	(0,9)	(149,1)	(1,10)	(151,4)	(91,1)	(-40,1)	(83,1)	(148,5)	(150,4)	(-2,2)	(126,1)	(-3,1)	(-104,1)	(197,1)	(-9,1)	
L1D -149>	(0,16)	(1,7)	(3,94)	(150,3)	(147,4)	(149,5)	(6,2)	(41,14)	(159,13)	(-44,29)	(4,2)	(13,3)	(5,5)	(127,2)	(122,1)	(-3,1)	
L1D -148>	(144,3)	(1,14)	(-1,2)	(3,19)	(-10,5)	(6,7)	(13,4)	(45,7)	(0,6)	(50,2)	(149,26)	(146,4)	(81,1)	(140,11)	(150,6)	(151,1)	
L1D -147>	(141,66)	(1,3)	(17,1)	(-145,0)	(5,52)	(-33,16)	(0,1)	(145,1)	(41,0)	(29,1)	(148,0)	(147,0)	(140,1)	(-6,0)	(2,0)	(6,1)	
L1D -146>	(0,107)	(-33,6)	(9,21)	(2,8)	(146,1)	(145,0)	(-1,0)	(1,0)	(1,0)	(1,0)	(1,0)	(1,0)	(1,0)	(1,0)	(1,0)	(1,0)	
L1D -145>	(2,2)	(12,47)	(1,10)	(143,4)	(5,25)	(145,7)	(147,6)	(-14,20)	(146,5)	(-269,1)	(-140,1)	(0,8)	(47,1)	(9,1)	(-2,1)	(7,3)	
L1D -144>	(130,96)	(-26,3)	(7,11)	(0,7)	(73,0)	(145,0)	(5,0)	(139,0)	(12,0)	(144,0)	(94,0)	(90,0)	(40,0)	(135,0)	(-50,0)	(1,0)	
L1D -143>	(6,88)	(0,64)	(5,0)	(129,7)	(-10,0)	(3,17)	(406,0)	(123,0)	(152,0)	(1,0)	(1,0)	(1,0)	(1,0)	(1,0)	(1,0)	(1,0)	
L1D -142>	(5,9)	(0,15)	(6,9)	(142,12)	(19,15)	(32,3)	(140,4)	(-1,5)	(1,10)	(-11,6)	(44,1)	(3,6)	(2,2)	(150,1)	(144,3)	(122,3)	
L1D -141>	(1,106)	(5,6)	(0,8)	(6,22)	(139,4)	(141,4)	(74,1)	(178,1)	(140,1)	(24,1)	(-3,2)	(-1,1)	(142,4)	(-33,11)	(105,1)	(128,1)	
L1D -140>	(0,15)	(90,8)	(41,4)	(1,9)	(140,11)	(138,4)	(141,6)	(-3,2)	(186,1)	(-136,1)	(160,1)	(-33,5)	(328,1)	(-20,1)	(126,1)	(117,1)	
L1D -139>	(117,2)	(0,7)	(1,4)	(90,19)	(137,4)	(139,2)	(140,2)	(-34,1)	(5,2)	(3,8)	(138,32)	(19,5)	(378,1)	(6,1)	(-14,20)	(4,1)	
L1D -138>	(1,7)	(-1,1)	(138,26)	(136,5)	(0,33)	(88,2)	(20,1)	(2,1)	(-14,65)	(5,2)	(-59,1)	(68,1)	(-54,1)	(133,1)	(143,1)	(6,2)	
L1D -137>	(0,10)	(139,1)	(136,38)	(-7,121)	(174,1)	(200,1)	(5,0)	(138,3)	(19,0)	(-1,0)	(-33,31)	(-14,7)	(184,0)	(4,0)	(1,0)	(1,0)	
L1D -136>	(0,12)	(2,0)	(136,0)	(-4,0)	(137,0)	(124,0)	(134,0)	(144,0)	(-14,77)	(138,18)	(-9,0)	(1,0)	(1,0)	(1,0)	(1,0)	(1,0)	
L1D -135>	(111,0)	(7,0)	(-8,103)	(0,3)	(6,2)	(130,0)	(144,0)	(-14,0)	(139,0)	(136,0)	(1,1)	(138,0)	(133,0)	(1,0)	(1,0)	(1,0)	
L1D -134>	(135,1)	(14,118)	(171,0)	(5,0)	(134,2)	(1,0)	(412,0)	(0,0)	(-1,0)	(106,0)	(9,0)	(50,1)	(4,0)	(132,0)	(143,0)	(1,0)	
L1D -133>	(133,4)	(134,3)	(14,105)	(-3,8)	(-5,1)	(1,1)	(0,3)	(6,66)	(-1,0)	(-40,22)	(131,1)	(-12,0)	(-8,10)	(29,0)	(88,0)	(2,0)	
L1D -132>	(-3,4)	(6,115)	(5,2)	(142,1)	(8,1)	(179,41)	(130,2)	(0,7)	(118,2)	(33,6)	(133,3)	(132,5)	(124,1)	(128,1)	(1,3)	(123,1)	
L1D -131>	(6,25)	(129,4)	(1,5)	(9,47)	(4,8)	(0,16)	(132,2)	(131,9)	(35,2)	(-1,1)	(17,1)	(179,3)	(41,1)	(117,1)	(112,1)	(5,9)	
L1D -130>	(5,3)	(1,32)	(0,22)	(21,5)	(8,9)	(4,11)	(130,6)	(2,1)	(9,14)	(-1,1)	(336,1)	(-137,1)	(7,1)	(3,2)	(131,1)	(128,4)	
L1D -129>	(1,4)	(-1,3)	(129,3)	(0,6)	(6,2)	(165,4)	(130,3)	(3,5)	(4,2)	(7,1)	(-30,1)	(127,4)	(9,3)	(138,1)	(173,1)	(-128,1)	
L1D -128>	(34,90)	(0,4)	(6,1)	(126,1)	(128,1)	(1,4)	(2,1)	(-2,4)	(51,1)	(129,1)	(-1,0)	(142,0)	(132,0)	(141,0)	(114,0)	(179,1)	
L1D -127>	(41,84)	(5,12)	(-126,0)	(40,19)	(9,41)	(-13,0)	(34,123)	(127,0)	(0,0)	(136,0)	(4,0)	(-1,0)	(1,0)	(1,0)	(1,0)	(1,0)	
L1D -126>	(4,15)	(9,112)	(68,1)	(38,4)	(-41,1)	(162,7)	(161,1)	(33,2)	(5,4)	(6,36)	(179,12)	(126,1)	(0,3)	(173,1)	(40,7)	(1,2)	
L1D -125>	(0,8)	(1,0)	(123,0)	(3,9)	(9,0)	(4,66)	(8,44)	(83,0)	(165,4)	(49,0)	(125,1)	(-1,0)	(27,0)	(166,3)	(206,1)	(2,0)	
L1D -124>	(9,7)	(122,4)	(21,100)	(0,24)	(1,9)	(5,11)	(-1,6)	(7,1)	(-4,14)	(4,31)	(113,7)	(82,20)	(125,6)	(41,91)	(-2,11)	(124,5)	
L1D -123>	(123,1)	(5,3)	(4,5)	(41,97)	(17,1)	(105,50)	(-4,10)	(1,3)	(0,3)	(9,0)	(121,0)	(458,0)	(86,0)	(124,0)	(-3,1)	(2,0)	
L1D -122>	(9,69)	(5,112)	(0,0)	(117,12)	(-3,17)	(40,18)	(-4,5)	(122,0)	(112,0)	(41,12)	(-2,0)	(4,42)	(376,0)	(-242,0)	(1,0)	(36,0)	
L1D -121>	(-1,1)	(4,6)	(9,118)	(-4,69)	(5,0)	(122,0)	(-3,10)	(-9,4)	(121,0)	(44,1)	(112,2)	(1,0)	(162,0)	(-5,0)	(11,0)	(41,0)	
L1D -120>	(161,1)	(103,67)	(0,1)	(-1,1)	(41,41)	(38,0)	(1,36)	(-45,1)	(30,1)	(9,120)	(121,2)	(40,0)	(-40,8)	(120,2)	(44,5)	(-8,2)	
L1D -119>	(-4,0)	(1,1)	(-18,67)	(115,0)	(9,29)	(117,7)	(-8,5)	(-164,0)	(0,1)	(5,75)	(2,8)	(120,0)	(123,0)	(159,0)	(36,0)	(-3,0)	
L1D -118>	(122,4)	(5,11)	(41,118)	(40,1)	(119,0)	(1,7)	(-18,8)	(-3,2)	(113,0)	(-8,1)	(0,0)	(118,0)	(-9,0)	(9,3)	(1,0)	(1,0)	
L1D -117>	(117,1)	(71,16)	(82,11)	(40,113)	(-5,14)	(1,47)	(-4,6)	(41,30)	(-207,4)	(-3,10)	(-41,1)	(-39,25)	(5,10)	(4,4)	(-44,111)	(121,43)	
L1D -116>	(-2,3)	(9,19)	(114,4)	(4,19)	(0,8)	(7,4)	(81,123)	(-76,1)	(3,2)	(-7,91)	(1,5)	(77,74)	(-214,2)	(2,6)	(116,10)	(157,6)	
L1D -115>	(13,109)	(-5,38)	(80,39)	(69,17)	(98,17)	(1,2)	(53,2)	(76,1)	(115,3)	(112,2)	(0,1)	(3,2)	(117,1)	(113,1)	(4,1)	(116,2)	
L1D -114>	(-1,103)	(113,2)	(97,1)	(5,1)	(0,1)	(-7,5)	(-83,0)	(30,0)	(114,1)	(41,2)	(-81,1)	(-82,0)	(-92,0)	(8,0)	(1,0)	(1,0)	
L1D -113>	(-49,0)	(67,2)	(78,1)	(1,0)	(-9,5)	(5,20)	(9,7)	(114,0)	(41,86)	(102,0)	(63,0)	(198,0)	(113,0)	(0,0)	(20,0)	(376,0)	
L1D -112>	(86,15)	(-4,31)	(113,17)	(1,69)	(117,12)	(112,10)	(110,4)	(9,9)	(111,3)	(0,19)	(-9,5)	(-49,14)	(44,15)	(61,1)	(-1,7)	(5,2)	
L1D -111>	(0,17)	(93,76)	(45,41)	(2,2)	(6,9)	(109,4)	(9,36)	(5,2)	(98,19)	(100,9)	(119,1)	(112,2)	(390,1)	(-64,1)	(111,12)	(62,4)	
L1D -110>	(-10,13)	(-1,17)	(0,34)	(33,20)	(478,1)	(111,1)	(1,6)	(97,1)	(120,76)	(4,1)	(8,7)	(2,6)	(48,2)	(99,1)	(98,2)	(78,1)	
L1D -109>	(99,2)	(108,1)	(78,0)	(424,0)	(110,0)	(-5,6)	(4,0)	(5,0)	(44,0)	(492,0)	(11,0)	(20,111)	(97,3)	(-11,0)	(-1,2)	(0,0)	
L1D -108>	(2,2)	(-54,36)	(117,2)	(1,11)	(-10,33)	(110,40)	(-6,5)	(0,33)	(78,68)	(108,2)	(-2,22)	(97,5)	(-12,26)	(107,1)	(-81,1)	(60,0)	
L1D -107>	(109,35)	(108,76)	(6,3)	(5,68)	(105,0)	(1,2)	(-54,5)	(24,0)	(-5,30)	(-3,23)	(107,16)	(31,21)	(106,1)	(-106,13)	(-8,4)	(0,3)	
L1D -106>	(0,84)	(104,4)	(3,4)	(106,14)	(107,15)	(1,13)	(-4,31)	(9,2)	(5,4)	(117,12)	(24,3)	(6,3)	(52,2)	(-16,1)	(13,1)	(99,2)	
L1D -105>	(144,0)	(0,23)	(-4,30)	(86,11)	(106,3)	(105,2)	(-328,104)	(-2,1)	(3,0)	(-1,0)	(24,0)	(1,0)	(1,0)	(1,0)	(1,0)	(1,0)	
L1D -104>	(-2,11)	(3,8)	(54,8)	(5,3)	(0,19)	(104,19)	(45,11)	(95,12)	(50,7)	(-1,5)	(9,4)	(-108,2)	(1,15)	(105,17)	(-137,1)	(102,4)	
L1D -103>	(60,71)	(2,15)	(99,0)	(6,0)	(15,8)	(103,0)	(1,14)	(81,0)	(-1,1)	(4,0)	(45,0)	(49,0)	(7,0)	(-50,0)	(1,0)	(1,0)	
L1D -102>	(-101,0)	(104,77)	(103,0)	(-7,1)	(-152,0)	(-8,0)	(0,0)	(6,0)	(-6,1)	(4,9)	(102,0)	(13,0)	(-78,0)	(121,0)	(15,0)	(1,0)	
L1D -101>	(100,0)	(-1,33)	(102,0)	(0,7)	(41,76)	(146,0)	(189,0)	(190,59)	(3,0)	(2,43)	(98,0)	(-60,0)	(103,1)	(9,0)	(1,0)	(17,0)	
L1D -100>	(62,0)	(11,29)	(-4,80)	(100,1)	(98,0)	(-3,0)	(101,1)	(71,0)	(0,0)	(3,0)	(2,2)	(1,0)	(-166,0)	(-2,0)	(110,0)	(-108,0)	
L1D -99>	(0,64)	(13,1)	(61,4)	(62,97)	(24,25)	(99,40)	(110,1)	(60,9)	(89,8)	(-4,0)	(11,0)	(79,0)	(101,11)	(87,3)	(98,4)	(78,13)	
L1D -98>	(0,97)	(98,89)	(-1,29)	(60,111)	(29,3)	(78,93)	(99,7)	(28,13)	(97,14)	(-58,13)	(13,1)	(24,0)	(108,13)	(1,0)	(111,1)	(-12,0)	
L1D -97>	(-96,1)	(0,0)	(98,33)	(8,2)	(9,0)	(13,3)	(41,96)	(2,97)	(97,3)	(20,0)	(96,0)	(99,0)	(29,17)	(87,0)	(-7,14)	(-3,0)	
L1D -96>	(0,13)	(-9,11)	(11,2)	(-8,5)	(98,0)	(-4,67)	(-1,0)	(95,1)	(-137,0)	(15,0)	(107,2)	(8,0)	(90,0)	(5,0)	(-58,9)	(96,1)	
L1D -95>	(99,117)	(-13,2)	(11,8)	(2,48)	(1,20)	(95,0)	(0,1)	(4,2)	(41,0)	(96,0)	(5,0)	(6,0)	(9,0)	(45,0)	(90,0)	(498,0)	
L1D -94>	(100,0)	(-14,0)	(40,0)	(-95,0)	(2,0)	(-4,80)	(4,2)	(1,1)	(45,0)	(3,1)	(-50,0)	(11,1)	(0,1)	(94,1)	(90,0)	(135,0)	
L1D -93>	(-2,23)	(8,2)	(-1,31)	(-8,55)	(45,72)	(94,1)	(93,0)	(0,35)	(2,56)	(24,0)	(146,0)	(9,19)	(1,8)	(107,3)	(95,0)	(128,0)	
L1D -92>	(97,11)	(7,2)	(9,9)	(-9,85)	(-20,1)	(107,17)	(93,6)	(1,39)	(95,109)	(-41,1)	(0,5)	(88,1)	(92,2)	(5,1)	(-8,9)	(90,1)	
L1D -91>	(-108,0)	(9,0)	(93,19)	(96,79)	(175,3)	(15,13)	(-3,0)	(0,1)	(1,23)	(144,0)	(8,11)	(-7,1)	(91,0)	(130,0)	(-1,0)	(2,0)	
L1D -90>	(1,4)	(-4,14)	(96,1)	(-35,0)	(-34,16)	(9,2)	(90,36)	(91,29)	(88,0)	(0,0)	(-8,109)	(15,9)	(4,0)	(7,4)	(14,0)	(-1,39)	
L1D -89>	(-7,1)	(1,6)	(0,33)	(4,1)	(130,0)	(-1,0)	(91,4)	(6,17)	(-34,10)	(97,0)	(98,1)	(129,0)	(13,0)	(88,72)	(87,0)	(9,0)	
L1D -88>	(0,95)	(-2,1)	(-1,1)	(-11,1)	(-9,62)	(94,0)	(1,25)	(88,44)	(90,3)	(7,0)	(6,3)	(-8,21)	(26,0)	(5,0)	(1,0)	(1,0)	
L1D -87>	(0,54)	(1,24)	(98,63)	(9,2)	(87,89)	(-86,1)	(26,0)	(41,0)	(86,1)	(89,11)	(-1,0)	(88,18)	(85,0)	(-5,0)	(-9,0)	(6,1)	
L1D -86>	(14,2)	(41,87)	(86,1)	(4,2)	(0,1)	(83,9)	(87,1)	(88,8)	(9,22)	(13,0)	(3,0)	(-4,9)	(40,113)	(5,1)	(1,3)	(2,0)	
L1D -85>	(-5,4)	(4,43)	(125,3)	(-23,103)	(9,31)	(107,4)	(-13,4)	(-8,32)	(82,5)	(45,1)	(1,7)	(-2,5)	(87,1)	(-9,3)	(38,2)	(-1,1)	
L1D -84>	(-14,92)	(87,13)	(88,0)	(109,81)	(13,8)	(85,2)	(0,1)	(5,14)	(165,9)	(84,41)	(-8,1)	(1,0)	(-9,10)	(125,53)	(206,0)	(44,0)	
L1D -83>	(-248,1)	(-4,1)	(83,1)	(-9,113)	(85,3)	(161,0)	(78,0)	(124,0)	(1,0)	(0,1)	(-5,25)	(9,4)	(108,10)	(-42,0)	(41,2)	(40,0)	
L1D -82>	(-3,71)	(-115,1)	(5,1)	(2,1)	(-102,9)	(81,0)	(-107,1)	(117,8)	(4,2)	(83,1)	(-5,0)	(40,0)	(9,24)	(41,0)	(1,3)	(71,0)	
L1D -81>	(1,0)	(81,0)	(40,4)	(4,21)	(27,0)	(79,3)	(-4,0)	(5,11)	(116,3)	(189,0)	(78,0)	(-1,0)	(7,0)	(-7,1)	(-2,1)	(9,79)	
L1D -80>	(9,42)	(1,2)	(115,118)	(44,7)	(-58,33)	(0,26)	(84,68)	(121,1)	(69,3)	(-223,1)	(2,3)	(4,12)	(5,2)	(81,3)	(18,4)	(77,0)	
L1D -79>	(83,108)	(75,2)	(77,17)	(132,1)	(-4,7)	(2,1)	(1,1)	(5,1)	(61,2)	(4,0)	(41,0)	(-107,0)	(99,0)	(-2,41)	(120,0)	(0,0)	
L1D -78>	(60,53)	(0,38)	(-36,17)	(-1,17)	(2,24)	(-3,55)	(113,5)	(87,4)	(1,94)	(89,2)	(73,2)	(98,7)	(-58,5)	(99,4)	(80,44)	(-8,3)	
L1D -77>	(-8,1)	(-39,3)	(-37,2)	(14,3)	(2,7)	(3,0)	(-4,77)	(41,51)	(-9,14)	(1,27)	(81,8)	(0,0)	(77,9)	(40,85)	(-201,0)	(-2,1)	
L1D -76>	(2,9)	(-44,3)	(76,59)	(0,61)	(1,17)	(75,68)	(116,5)	(-5,19)	(52,1)	(117,20)	(37,2)	(-9,5)	(82,2)	(-36,48)	(-38,1)	(5,7)	
L1D -75>	(-6,9)	(0,97)	(1,107)	(18,16)	(76,115)	(75,62)	(32,8)	(132,1)	(-39,6)	(-108,1)	(128,1)	(-37,1)	(77,2)	(84,36)	(33,1)	(44,4)	
L1D -74>	(20,1)	(26,0)	(-3,33)	(17,12)	(-2,83)	(-7,4)	(103,0)	(4,1)	(3,1)	(-18,34)	(1,35)	(-1,0)	(76,0)	(74,2)	(168,0)	(73,1)	
L1D -73>	(15,7)	(1,28)	(75,6)	(73,5)	(41,5)	(0,1)	(-108,1)	(-2,65)	(9,29)	(130,1)	(14,23)	(5,2)	(77,0)	(-1,19)	(20,4)	(74,1)	
L1D -72>	(76,7)	(-1,87)	(3,1)	(-5,18)	(15,12)	(14,1)	(72,1)	(0,1)	(-2,1)	(112,1)	(1,2)	(73,1)	(77,4)	(24,0)	(18,0)	(-4,5)	
L1D -71>	(-3,79)	(76,0)	(-10,2)	(-5,6)	(1,82)	(65,31)	(424,0)	(20,1)	(-4,0)	(-1,12)	(71,0)	(-6,5)	(-215,0)	(1,0)	(1,0)	(1,0)	
L1D -70>	(-85,20)	(1,94)	(30,90)	(4,3)	(-4,1)	(5,16)	(70,6)	(11,8)	(-1,4)	(-2,6)	(0,5)	(-3,33)	(-7,87)	(-5,1)	(72,1)	(71,1)	
L1D -69>	(22,14)	(207,0)	(70,0)	(23,0)	(0,0)	(-85,2)	(69,0)	(-1,84)	(67,5)	(73,2)	(1,0)	(-86,0)	(-87,0)	(5,0)	(-107,0)	(1,0)	
L1D -68>	(2,1)	(72,79)	(69,7)	(-2,24)	(201,0)	(-1,4)	(5,0)	(-4,1)	(-3,51)	(101,0)	(66,0)	(68,0)	(1,1)	(41,0)	(1,0)	(1,0)	
L1D -67>	(2,97)	(-3,50)	(1,17)	(72,0)	(-1,45)	(-8,12)	(-6,8)	(69,13)	(-108,0)	(-10,0)	(61,2)	(3,1)	(67,3)	(68,0)	(-2,0)	(1,0)	
L1D -66>	(-1,0)	(-5,0)	(-45,15)	(0,0)	(326,0)	(-7,96)	(-6,4)	(67,0)	(-4,15)	(66,0)	(366,0)	(1,0)	(1,0)	(1,0)	(1,0)	(1,0)	
L1D -65>	(65,22)	(1,22)	(2,7)	(6,11)	(0,9)	(61,3)	(59,25)	(3,12)	(130,1)	(195,1)	(24,7)	(-1,2)	(66,4)	(63,3)	(62,1)	(118,4)	
L1D -64>	(-3,8)	(0,89)	(-4,30)	(-6,15)	(11,2)	(69,8)	(1,1)	(-5,8)	(76,1)	(51,1)	(-2,7)	(97,1)	(65,10)	(64,8)	(62,1)	(4,20)	
L1D -63>	(0,67)	(-8,6)	(-1,40)	(63,24)	(5,2)	(70,2)	(-11,3)	(-7,3)	(1,113)	(2,18)	(21,6)	(72,2)	(17,6)	(20,10)	(100,1)	(4,30)	
L1D -62>	(2,69)	(-3,2)	(51,31)	(-137,1)	(-2,54)	(-6,7)	(56,14)	(-1,38)	(-8,0)	(52,3)	(-23,0)	(63,0)	(58,0)	(0,1)	(62,0)	(6,0)	
L1D -61>	(3,86)	(1,90)	(-108,1)	(257,0)	(51,0)	(99,3)	(62,0)	(0,0)	(61,1)	(2,0)	(-214,0)	(100,0)	(79,0)	(-196,0)	(1,0)	(1,0)	
L1D -60>	(60,90)	(-1,16)	(99,44)	(0,39)	(-2,27)	(61,0)	(-4,7)	(-8,0)	(6,0)	(4,4)	(-3,8)	(-5,13)	(2,2)	(104,0)	(1,0)	(11,0)	
L1D -59>	(63,73)	(0,27)	(1,55)	(-8,5)	(-3,1)	(59,16)	(-1,60)	(50,4)	(9,24)	(-11,2)	(5,2)	(-108,5)	(116,3)	(57,4)	(60,5)	(20,9)	
L1D -58>	(5,0)	(2,78)	(1,54)	(58,0)	(56,3)	(-14,12)	(-2,53)	(36,0)	(49,0)	(0,3)	(-4,1)	(6,0)	(4,0)	(15,0)	(40,0)	(1,0)	
L1D -57>	(53,1)	(62,4)	(-10,7)	(57,88)	(8,1)	(-1,68)	(58,10)	(0,107)	(55,3)	(1,3)	(-350,1)	(19,0)	(9,7)	(-2,7)	(61,48)	(107,0)	
L1D -56>	(41,0)	(-1,49)	(-2,109)	(203,1)	(122,0)	(45,3)	(-108,0)	(-4,3)	(-29,0)	(56,1)	(16,0)	(6,1)	(57,0)	(0,0)	(55,1)	(58,0)	
L1D -55>	(-2,111)	(0,1)	(56,0)	(45,0)	(-1,0)	(63,0)	(3,0)	(1,0)	(66,0)	(69,0)	(70,0)	(54,0)	(7,0)	(57,3)	(24,0)	(55,0)	
L1D -54>	(1,13)	(3,6)	(-27,39)	(-23,2)	(-1,106)	(22,1)	(162,3)	(6,1)	(56,113)	(54,1)	(313,1)	(-5,2)	(14,5)	(-52,4)	(-3,0)	(7,0)	
L1D -53>	(54,7)	(17,2)	(53,9)	(-9,0)	(64,73)	(358,33)	(4,8)	(-39,0)	(0,0)	(12,0)	(5,0)	(2,0)	(52,0)	(161,1)	(1,1)	(1,0)	
L1D -52>	(5,0)	(0,3)	(-10,0)	(62,0)	(52,4)	(1,70)	(24,2)	(-284,0)	(30,0)	(53,2)	(2,0)	(-4,0)	(29,67)	(58,0)	(57,0)	(1,0)	
L1D -51>	(1,3)	(60,2)	(49,2)	(6,15)	(56,4)	(-20,6)	(0,4)	(51,22)	(-2,103)	(-4,4)	(5,16)	(52,12)	(26,3)	(4,6)	(155,1)	(18,1)	
L1D -50>	(2,101)	(324,1)	(1,81)	(60,1)	(-3,4)	(50,0)	(4,5)	(14,4)	(48,0)	(3,6)	(-5,4)	(-2,0)	(-4,1)	(55,0)	(-1,0)	(9,0)	
L1D -49>	(4,8)	(0,57)	(43,1)	(9,3)	(-5,92)	(-2,16)	(-4,6)	(3,3)	(53,9)	(-1,25)	(44,5)	(89,3)	(56,4)	(49,1)	(18,1)	(-9,10)	
L1D -48>	(-9,80)	(18,0)	(48,0)	(52,0)	(-1,15)	(7,0)	(2,0)	(-10,12)	(-29,0)	(-24,0)	(17,0)	(20,0)	(47,0)	(89,0)	(9,0)	(3,0)	
L1D -47>	(0,126)	(7,2)	(2,17)	(3,1)	(47,14)	(49,70)	(48,1)	(-108,5)	(53,0)	(-2,1)	(384,0)	(1,0)	(1,0)	(1,0)	(1,0)	(1,0)	
L1D -46>	(-2,1)	(41,10)	(-3,67)	(1,20)	(56,0)	(-7,0)	(-5,2)	(-8,1)	(93,1)	(0,0)	(44,4)	(48,6)	(-1,14)	(45,4)	(-4,3)	(40,0)	
L1D -45>	(1,4)	(3,3)	(5,18)	(45,108)	(4,3)	(-5,52)	(43,51)	(63,4)	(-9,59)	(-8,1)	(-2,31)	(93,18)	(-4,27)	(41,1)	(-1,3)	(9,9)	
L1D -44>	(84,72)	(206,1)	(48,7)	(4,1)	(8,2)	(79,3)	(3,3)	(42,8)	(-1,27)	(125,0)	(5,2)	(-3,11)	(44,6)	(85,7)	(-13,2)	(46,39)	
L1D -43>	(12,1)	(48,0)	(-2,42)	(47,103)	(45,21)	(-3,22)	(44,0)	(-7,6)	(-4,2)	(43,20)	(-12,2)	(4,0)	(2,0)	(-11,6)	(1,6)	(42,0)	
L1D -42>	(-3,47)	(2,122)	(-4,1)	(42,56)	(-9,1)	(-5,12)	(5,5)	(-8,7)	(80,1)	(-1,14)	(50,1)	(33,5)	(6,5)	(44,15)	(1,16)	(0,0)	
L1D -41>	(0,6)	(9,43)	(41,4)	(5,48)	(-4,19)	(14,2)	(43,36)	(2,5)	(-76,1)	(-9,103)	(81,1)	(-3,23)	(-2,5)	(-1,2)	(45,5)	(40,5)	
L1D -40>	(4,112)	(39,21)	(0,2)	(-243,1)	(81,7)	(45,2)	(148,2)	(-4,2)	(40,20)	(-16,23)	(-7,2)	(166,1)	(6,1)	(9,30)	(5,1)	(41,0)	
L1D -39>	(-22,0)	(1,9)	(79,1)	(-187,0)	(0,3)	(39,8)	(50,4)	(19,0)	(6,0)	(80,1)	(44,81)	(38,0)	(2,0)	(84,14)	(18,0)	(-6,3)	
L1D -38>	(44,14)	(0,3)	(-6,1)	(-2,19)	(-54,1)	(-60,7)	(36,120)	(38,23)	(9,4)	(11,29)	(4,62)	(-7,2)	(32,97)	(-5,105)	(-3,21)	(3,1)	
L1D -37>	(9,3)	(6,1)	(285,0)	(196,0)	(1,0)	(-1,0)	(37,0)	(40,10)	(2,5)	(-2,1)	(-9,0)	(5,74)	(32,0)	(0,1)	(14,2)	(-3,1)	
L1D -36>	(-3,16)	(9,11)	(25,68)	(-1,53)	(1,3)	(36,14)	(-4,13)	(44,8)	(2,56)	(40,61)	(5,58)	(38,20)	(13,6)	(-9,2)	(51,1)	(37,1)	
L1D -35>	(-3,77)	(-10,0)	(1,19)	(0,0)	(-81,2)	(6,0)	(4,1)	(35,5)	(-82,3)	(-14,0)	(-80,2)	(-169,1)	(9,1)	(-1,49)	(-5,0)	(29,1)	
L1D -34>	(0,124)	(2,14)	(-3,7)	(-11,2)	(34,51)	(-14,2)	(11,6)	(1,78)	(-6,1)	(5,1)	(-7,6)	(-4,28)	(4,10)	(32,45)	(26,0)	(-1,0)	
L1D -33>	(-62,1)	(10,3)	(1,27)	(180,1)	(-216,0)	(33,6)	(-248,0)	(-3,2)	(26,0)	(28,0)	(37,83)	(2,4)	(-1,5)	(19,4)	(3,1)	(0,1)	
L1D -32>	(-1,40)	(41,4)	(36,60)	(-4,2)	(102,1)	(-14,11)	(-3,41)	(-2,64)	(5,71)	(28,1)	(40,8)	(295,1)	(30,6)	(32,0)	(0,2)	(-9,3)	
L1D -31>	(-3,75)	(1,2)	(9,14)	(-5,21)	(40,1)	(-1,3)	(-239,2)	(-14,1)	(5,27)	(-8,16)	(29,0)	(417,0)	(4,12)	(15,1)	(2,1)	(0,1)	
L1D -30>	(256,1)	(-5,11)	(203,1)	(248,1)	(30,3)	(-6,13)	(268,1)	(-4,119)	(13,0)	(0,0)	(4,1)	(3,5)	(6,4)	(2,11)	(-7,5)	(18,0)	
L1D -29>	(-241,4)	(1,35)	(26,116)	(34,1)	(-331,9)	(2,9)	(6,36)	(30,6)	(-1,42)	(-6,3)	(43,89)	(7,4)	(-26,1)	(29,13)	(21,3)	(-9,25)	
L1D -28>	(-4,21)	(0,116)	(2,65)	(-319,62)	(1,41)	(10,27)	(-320,93)	(256,1)	(32,8)	(25,6)	(56,6)	(28,5)	(36,3)	(-13,4)	(-322,1)	(-14,14)	
L1D -27>	(0,7)	(-25,3)	(27,51)	(4,3)	(-13,22)	(80,1)	(28,1)	(1,97)	(40,62)	(-117,1)	(-11,2)	(2,1)	(-7,5)	(23,3)	(-8,1)	(189,2)	
L1D -26>	(-6,10)	(2,1)	(1,75)	(33,16)	(19,9)	(0,16)	(-5,67)	(-199,10)	(-2,27)	(35,5)	(5,81)	(6,7)	(-10,15)	(4,15)	(40,20)	(-1,26)	
L1D -25>	(9,0)	(-37,0)	(-10,92)	(41,24)	(15,0)	(6,3)	(0,8)	(1,73)	(26,2)	(-1,12)	(-52,0)	(19,0)	(4,2)	(-57,3)	(18,1)	(25,0)	
L1D -24>	(8,116)	(-8,5)	(24,54)	(-4,32)	(25,16)	(7,17)	(1,16)	(19,1)	(9,8)	(6,3)	(26,1)	(0,3)	(3,31)	(-7,1)	(12,1)	(-3,1)	
L1D -23>	(8,92)	(0,9)	(5,8)	(27,4)	(63,1)	(1,2)	(-54,1)	(-7,1)	(20,0)	(23,0)	(-10,0)	(21,0)	(118,2)	(22,0)	(2,1)	(50,0)	
L1D -22>	(4,51)	(20,3)	(1,12)	(250,2)	(5,122)	(-9,112)	(-37,11)	(40,17)	(-2,3)	(22,1)	(0,1)	(-239,5)	(-1,1)	(36,13)	(2,5)	(-8,0)	
L1D -21>	(25,2)	(16,19)	(21,10)	(110,1)	(-4,2)	(1,38)	(-1,68)	(10,1)	(-6,0)	(22,0)	(-78,10)	(-10,39)	(0,7)	(19,4)	(4,0)	(17,2)	
L1D -20>	(0,57)	(-1,86)	(1,31)	(-4,5)	(-6,13)	(19,47)	(6,18)	(26,21)	(239,1)	(20,30)	(3,12)	(-8,1)	(13,31)	(-3,5)	(24,9)	(23,14)	
L1D -19>	(-7,12)	(2,2)	(19,1)	(-2,77)	(-4,0)	(9,3)	(-1,28)	(-9,16)	(6,0)	(101,1)	(1,6)	(4,27)	(-86,1)	(-5,0)	(12,1)	(8,17)	
L1D -18>	(17,14)	(19,4)	(39,1)	(22,2)	(-5,5)	(21,1)	(-3,5)	(7,1)	(-6,126)	(0,1)	(15,7)	(2,12)	(1,9)	(50,1)	(4,2)	(9,0)	
L1D -17>	(-77,3)	(16,2)	(21,0)	(7,3)	(0,1)	(17,93)	(14,26)	(-5,78)	(9,90)	(4,16)	(8,19)	(40,2)	(1,73)	(2,1)	(-7,0)	(-1,0)	
L1D -16>	(-9,76)	(4,2)	(-1,23)	(15,5)	(20,3)	(-6,76)	(-5,97)	(-14,1)	(1,7)	(17,4)	(7,14)	(93,2)	(3,22)	(8,7)	(63,11)	(16,25)	
L1D -15>	(-9,99)	(13,1)	(-11,6)	(51,0)	(16,0)	(0,39)	(-8,23)	(14,0)	(6,1)	(15,11)	(-4,7)	(2,3)	(93,2)	(17,6)	(1,1)	(3,0)	
L1D -14>	(0,93)	(108,9)	(-14,4)	(56,13)	(10,20)	(-3,21)	(-7,2)	(2,124)	(1,10)	(19,1)	(3,8)	(14,5)	(4,16)	(101,4)	(9,37)	(6,11)	
L1D -13>	(1,12)	(-2,2)	(-5,46)	(0,1)	(2,4)	(4,7)	(-3,1)	(18,1)	(8,2)	(-6,9)	(13,27)	(-9,108)	(-10,1)	(-199,0)	(17,32)	(165,14)	
L1D -12>	(-87,1)	(2,30)	(1,97)	(10,7)	(-1,1)	(-3,3)	(16,1)	(3,29)	(118,11)	(99,6)	(-105,2)	(-5,23)	(-10,29)	(8,8)	(4,4)	(0,5)	
L1D -11>	(47,66)	(0,32)	(-9,122)	(83,12)	(1,61)	(-4,36)	(26,46)	(-7,17)	(93,10)	(11,42)	(5,105)	(-8,15)	(4,57)	(56,1)	(2,24)	(41,18)	
L1D -10>	(117,1)	(3,6)	(77,10)	(1,54)	(-6,4)	(0,22)	(9,25)	(10,97)	(56,2)	(7,26)	(5,9)	(57,12)	(25,17)	(4,75)	(-2,30)	(41,27)	
L1D -9>	(63,1)	(-7,10)	(18,4)	(61,4)	(17,3)	(-8,122)	(49,1)	(9,37)	(-1,11)	(12,4)	(4,16)	(1,10)	(24,5)	(-3,5)	(0,2)	(2,0)	
L1D -8>	(17,120)	(23,24)	(0,21)	(-5,1)	(8,28)	(41,1)	(-9,26)	(-10,10)	(-1,17)	(14,27)	(115,1)	(9,75)	(1,25)	(10,4)	(129,4)	(5,4)	
L1D -7>	(66,26)	(15,7)	(0,29)	(8,27)	(-5,1)	(7,15)	(-2,5)	(56,28)	(1,30)	(2,2)	(49,7)	(14,10)	(3,8)	(-4,16)	(-1,17)	(30,66)	
L1D -6>	(9,28)	(24,123)	(4,11)	(41,26)	(2,1)	(190,5)	(77,11)	(1,69)	(30,9)	(20,6)	(-8,108)	(6,2)	(17,7)	(-1,9)	(-6,11)	(5,82)	
L1D -5>	(23,3)	(41,20)	(16,11)	(9,10)	(18,12)	(1,10)	(-2,3)	(4,24)	(5,65)	(-6,18)	(0,8)	(-11,12)	(-32,0)	(10,8)	(-1,31)	(-9,7)	
L1D -4>	(26,1)	(18,11)	(15,28)	(0,71)	(4,55)	(-3,25)	(1,47)	(7,12)	(-7,7)	(-1,5)	(-6,9)	(2,32)	(-5,49)	(-4,75)	(11,15)	(9,16)	
L1D -3>	(14,1)	(0,104)	(6,40)	(20,43)	(4,62)	(-6,24)	(-9,17)	(-5,27)	(3,29)	(43,35)	(1,77)	(-4,18)	(32,35)	(-7,23)	(-2,46)	(-1,50)	
L1D -2>	(5,40)	(63,1)	(16,19)	(-5,29)	(2,19)	(4,10)	(-4,9)	(15,23)	(0,90)	(1,34)	(3,9)	(-3,14)	(-2,46)	(6,15)	(-7,23)	(-9,19)	
L1D -1>	(20,18)	(4,102)	(-1,24)	(8,17)	(1,39)	(13,29)	(5,44)	(2,45)	(-6,30)	(9,51)	(-3,51)	(-2,38)	(89,23)	(0,76)	(35,1)	(7,18)	
L1D 0>	(0,79)	(306,1)	(-7,6)	(49,1)	(33,1)	(-264,3)	(9,1)	(88,23)	(-1,1)	(2,49)	(4,6)	(23,2)	(-2,1)	(1,1)	(8,8)	(3,3)	
L1D 1>	(87,4)	(10,1)	(-43,1)	(2,9)	(1,121)	(-4,2)	(-11,2)	(8,4)	(3,11)	(-2,6)	(16,2)	(-6,4)	(-9,2)	(6,1)	(-1,9)	(0,5)	
L1D 2>	(0,88)	(3,11)	(-6,2)	(-3,5)	(2,122)	(1,16)	(-7,5)	(-1,6)	(5,4)	(-14,5)	(56,1)	(6,3)	(4,14)	(7,2)	(-4,1)	(-2,6)	
L1D 3>	(1,69)	(-7,2)	(2,126)	(-1,15)	(13,11)	(5,27)	(0,16)	(-3,30)	(3,42)	(4,16)	(-11,11)	(7,18)	(-4,8)	(9,6)	(17,15)	(6,20)	
L1D 4>	(1,23)	(-35,26)	(5,112)	(-4,23)	(-17,20)	(9,79)	(-203,1)	(0,16)	(4,15)	(-3,16)	(2,33)	(3,19)	(-12,25)	(36,14)	(-6,10)	(-46,31)	
L1D 5>	(4,62)	(18,4)	(44,14)	(2,24)	(-248,1)	(9,93)	(-6,6)	(31,19)	(5,13)	(-5,21)	(35,22)	(40,25)	(-4,19)	(-37,14)	(1,30)	(-7,19)	
L1D 6>	(-3,1)	(-6,17)	(123,20)	(-10,25)	(1,56)	(20,11)	(-2,10)	(-174,11)	(13,9)	(2,101)	(-193,5)	(14,51)	(11,41)	(18,8)	(3,29)	(21,21)	
L1D 7>	(-7,42)	(-4,35)	(0,47)	(4,36)	(-6,9)	(-10,35)	(2,104)	(1,54)	(-52,13)	(-5,14)	(3,67)	(23,8)	(13,20)	(-1,28)	(-11,1)	(9,19)	
L1D 8>	(-9,43)	(9,1)	(15,14)	(47,1)	(-17,73)	(-7,2)	(-16,1)	(-8,14)	(0,0)	(8,13)	(-3,2)	(1,12)	(43,2)	(11,1)	(4,1)	(3,1)	
L1D 9>	(40,19)	(-26,6)	(-280,1)	(9,51)	(-16,8)	(0,5)	(8,123)	(-22,17)	(-31,6)	(-17,29)	(4,27)	(-21,5)	(-12,22)	(-13,25)	(5,41)	(-11,2)	
L1D 10>	(7,13)	(0,127)	(38,14)	(-9,88)	(-10,122)	(8,16)	(4,18)	(20,1)	(2,6)	(-13,11)	(1,11)	(-6,5)	(-11,46)	(3,32)	(-12,5)	(-8,17)	
L1D 11>	(-10,36)	(0,71)	(-7,17)	(23,34)	(-9,13)	(-15,6)	(-110,1)	(1,17)	(-20,11)	(5,14)	(-18,14)	(47,31)	(72,2)	(-2,8)	(-16,68)	(36,49)	
L1D 12>	(-20,1)	(-9,1)	(-110,1)	(-10,5)	(-3,73)	(-12,4)	(-14,5)	(-4,1)	(4,6)	(-2,3)	(118,2)	(24,1)	(1,15)	(5,5)	(0,4)	(-30,1)	
L1D 13>	(9,27)	(-11,26)	(-34,86)	(40,25)	(-2,4)	(7,22)	(0,107)	(-36,12)	(13,26)	(47,14)	(59,16)	(5,1)	(-18,32)	(20,44)	(1,40)	(26,8)	
L1D 14>	(-14,2)	(0,88)	(-11,1)	(23,19)	(-8,1)	(-15,4)	(-13,76)	(-17,1)	(-5,2)	(20,1)	(26,3)	(-16,25)	(9,2)	(-19,13)	(120,1)	(-6,126)	
L1D 15>	(23,1)	(2,12)	(-28,5)	(1,19)	(18,25)	(0,7)	(-23,87)	(-16,9)	(-24,16)	(-12,4)	(-8,3)	(-5,10)	(-15,90)	(-9,1)	(-18,24)	(16,4)	
L1D 16>	(47,61)	(-9,100)	(23,19)	(-15,5)	(72,3)	(-18,2)	(1,42)	(2,13)	(0,76)	(36,9)	(82,1)	(332,14)	(59,18)	(-11,6)	(-24,12)	(40,12)	
L1D 17>	(0,2)	(-11,9)	(-3,0)	(2,3)	(3,0)	(-23,0)	(-22,0)	(4,4)	(-17,9)	(-15,3)	(-10,2)	(-5,6)	(-8,27)	(-13,3)	(-9,102)	(-16,9)	
L1D 18>	(-9,16)	(21,10)	(-13,1)	(-23,72)	(17,0)	(-18,4)	(-19,21)	(-11,55)	(0,31)	(-15,13)	(72,30)	(2,67)	(-35,18)	(9,0)	(-61,10)	(36,3)	
L1D 19>	(-7,8)	(0,46)	(1,81)	(-18,22)	(-1,25)	(-9,82)	(-24,40)	(220,1)	(-19,43)	(72,10)	(-6,11)	(-20,42)	(-12,9)	(-15,14)	(-13,42)	(7,11)	
L1D 20>	(-16,127)	(-17,3)	(-19,74)	(-14,8)	(6,3)	(0,3)	(-26,18)	(-6,3)	(-21,3)	(-18,6)	(-98,3)	(3,3)	(5,42)	(-2,4)	(-22,1)	(-20,14)	
L1D 21>	(-12,65)	(0,1)	(-21,17)	(-17,5)	(-3,5)	(-2,10)	(-15,112)	(11,12)	(-23,10)	(7,11)	(-35,1)	(-31,1)	(-18,14)	(-26,5)	(-99,15)	(-24,13)	
L1D 22>	(-60,6)	(-108,26)	(4,22)	(-16,57)	(2,1)	(306,31)	(-66,29)	(9,31)	(-33,6)	(-19,11)	(0,15)	(146,93)	(-62,2)	(-24,4)	(-111,2)	(-21,3)	
L1D 23>	(-9,1)	(-22,3)	(-15,30)	(-23,107)	(-1,11)	(-34,0)	(4,83)	(-36,1)	(15,10)	(0,0)	(-32,1)	(-14,0)	(-16,1)	(-33,1)	(-24,3)	(-20,2)	
L1D 24>	(1,11)	(29,0)	(-23,52)	(-15,104)	(-20,0)	(-16,0)	(9,1)	(93,0)	(-24,4)	(75,0)	(32,0)	(146,0)	(0,0)	(-18,15)	(48,0)	(-13,0)	
L1D 25>	(-15,15)	(-9,1)	(-27,12)	(49,1)	(50,1)	(12,1)	(82,0)	(-25,0)	(-24,89)	(-18,14)	(0,1)	(1,0)	(-16,4)	(-26,2)	(5,0)	(-6,1)	
L1D 26>	(-21,7)	(6,1)	(0,8)	(-12,3)	(2,37)	(-26,22)	(-9,2)	(-13,1)	(-25,0)	(-20,13)	(-28,8)	(54,28)	(1,7)	(-15,113)	(52,1)	(-3,6)	
L1D 27>	(13,1)	(-28,7)	(-15,107)	(-48,8)	(-23,11)	(-81,1)	(53,6)	(-13,6)	(-27,16)	(-33,1)	(-17,17)	(-12,2)	(-108,1)	(-9,1)	(-24,2)	(-35,6)	
L1D 28>	(-14,32)	(-28,79)	(-347,1)	(-85,8)	(-27,29)	(0,1)	(-39,1)	(-7,0)	(28,11)	(-54,10)	(8,6)	(17,6)	(-26,5)	(4,20)	(110,0)	(147,2)	
L1D 29>	(-246,1)	(-15,96)	(-39,1)	(-12,46)	(-31,21)	(-28,19)	(-278,1)	(1,1)	(-36,0)	(3,0)	(58,1)	(22,0)	(-29,1)	(0,1)	(60,0)	(69,6)	
L1D 30>	(-32,7)	(75,10)	(14,0)	(-31,3)	(-13,12)	(93,9)	(4,76)	(-33,112)	(60,0)	(0,0)	(41,5)	(-34,28)	(-23,3)	(90,0)	(-2,4)	(-30,0)	
L1D 31>	(40,107)	(-203,4)	(0,3)	(-31,2)	(-269,1)	(-16,1)	(-202,2)	(4,12)	(-34,3)	(-243,2)	(-324,3)	(-37,1)	(41,45)	(-36,1)	(-41,0)	(6,0)	
L1D 32>	(-34,1)	(-56,0)	(4,0)	(0,0)	(-2,0)	(-256,0)	(-10,0)	(9,0)	(70,1)	(12,0)	(-31,96)	(241,0)	(-40,0)	(1,0)	(-30,0)	(40,0)	
L1D 33>	(0,53)	(-7,100)	(-15,2)	(66,3)	(279,1)	(-31,31)	(-32,1)	(269,1)	(2,14)	(-33,42)	(233,3)	(80,5)	(9,93)	(211,2)	(-37,25)	(243,1)	
L1D 34>	(-36,55)	(-8,4)	(3,0)	(1,0)	(-34,1)	(68,1)	(26,6)	(-1,0)	(0,0)	(-33,69)	(-13,0)	(-15,0)	(17,0)	(73,0)	(-2,0)	(4,0)	
L1D 35>	(41,79)	(-121,10)	(5,28)	(-243,1)	(4,5)	(-162,3)	(-41,1)	(-34,45)	(-81,4)	(2,0)	(-117,2)	(7,2)	(-202,20)	(-31,0)	(0,40)	(40,17)	
L1D 36>	(-32,10)	(4,93)	(128,3)	(0,3)	(-243,1)	(-35,24)	(-37,1)	(-34,10)	(-31,3)	(-36,2)	(-27,0)	(-30,7)	(-38,1)	(40,70)	(2,3)	(-43,7)	
L1D 37>	(-23,0)	(-20,0)	(-40,0)	(-35,111)	(-37,1)	(79,0)	(-7,0)	(0,0)	(159,1)	(4,0)	(17,0)	(-38,12)	(-34,1)	(-17,0)	(1,0)	(23,0)	
L1D 38>	(0,94)	(1,26)	(15,29)	(-98,12)	(76,1)	(4,3)	(41,19)	(-2,52)	(12,5)	(-30,6)	(-40,2)	(5,5)	(-48,1)	(40,19)	(-44,3)	(386,3)	
L1D 39>	(-21,31)	(11,89)	(40,94)	(-40,62)	(-30,11)	(9,3)	(41,54)	(1,14)	(54,2)	(4,11)	(-99,28)	(-9,13)	(-1,4)	(-49,3)	(-3,3)	(-45,3)	
L1D 40>	(41,105)	(-243,0)	(-43,0)	(-84,0)	(-121,1)	(-323,0)	(-202,0)	(4,0)	(5,14)	(40,7)	(-162,0)	(0,0)	(-283,1)	(-40,3)	(9,7)	(-242,0)	
L1D 41>	(40,93)	(81,0)	(-328,0)	(9,0)	(4,12)	(-162,0)	(-41,0)	(-122,3)	(2,0)	(-81,2)	(-43,2)	(-161,2)	(-364,1)	(-324,8)	(-117,0)	(-189,1)	
L1D 42>	(4,61)	(-43,5)	(13,1)	(67,5)	(-6,1)	(0,125)	(-46,3)	(128,2)	(-45,16)	(5,2)	(-48,1)	(-41,66)	(2,97)	(83,0)	(7,0)	(-42,22)	
L1D 43>	(-42,98)	(-43,0)	(5,1)	(-20,0)	(2,20)	(67,0)	(12,0)	(0,33)	(11,0)	(-54,0)	(20,0)	(3,0)	(-1,0)	(42,0)	(-3,0)	(40,0)	
L1D 44>	(12,0)	(1,6)	(18,8)	(2,3)	(5,3)	(-6,0)	(41,39)	(-45,0)	(40,67)	(-39,4)	(-116,0)	(11,0)	(-115,0)	(0,8)	(4,2)	(24,1)	
L1D 45>	(11,2)	(0,46)	(-41,1)	(-46,1)	(-4,0)	(-9,8)	(4,88)	(27,1)	(-31,3)	(40,13)	(-3,7)	(-44,0)	(8,0)	(9,1)	(-1,3)	(5,1)	
L1D 46>	(-42,7)	(4,9)	(26,126)	(-50,1)	(101,1)	(-49,1)	(90,1)	(-45,79)	(-55,1)	(-43,8)	(-84,0)	(-51,3)	(92,0)	(-46,4)	(-4,0)	(47,4)	
L1D 47>	(4,40)	(-46,125)	(-49,1)	(-356,1)	(-45,9)	(6,2)	(2,58)	(-30,40)	(-31,5)	(-4,15)	(-47,97)	(-43,6)	(-36,3)	(0,3)	(-37,9)	(-34,11)	
L1D 48>	(0,122)	(-46,10)	(72,4)	(-1,29)	(14,10)	(-45,3)	(-34,1)	(-48,102)	(2,10)	(-49,54)	(1,3)	(-2,3)	(-93,2)	(96,4)	(15,49)	(-51,6)	
L1D 49>	(4,76)	(41,2)	(-48,40)	(-45,22)	(-9,2)	(-42,23)	(100,1)	(97,0)	(-46,26)	(-43,31)	(-50,15)	(-57,12)	(0,0)	(9,2)	(-41,38)	(5,1)	
L1D 50>	(-110,6)	(-9,2)	(21,28)	(2,3)	(28,0)	(-2,6)	(146,0)	(-44,0)	(102,0)	(-7,0)	(-48,11)	(-50,0)	(-111,0)	(-12,5)	(0,5)	(-36,72)	
L1D 51>	(1,0)	(-54,97)	(182,0)	(-11,1)	(-37,0)	(102,2)	(-49,0)	(-32,5)	(-36,0)	(-35,90)	(-34,1)	(-51,3)	(-5,31)	(-38,0)	(0,0)	(104,0)	
L1D 52>	(-11,2)	(1,8)	(0,18)	(-55,113)	(4,11)	(103,5)	(5,3)	(-62,22)	(-36,21)	(-51,11)	(-52,30)	(104,25)	(-34,4)	(106,7)	(-35,5)	(-23,35)	
L1D 53>	(106,2)	(-53,13)	(2,2)	(212,1)	(170,6)	(-52,116)	(105,3)	(4,16)	(-54,10)	(6,16)	(0,3)	(1,1)	(-36,1)	(-40,1)	(5,8)	(108,11)	
L1D 54>	(107,31)	(5,0)	(-54,0)	(-36,9)	(106,0)	(-34,0)	(110,0)	(1,10)	(4,19)	(-47,3)	(-53,20)	(0,1)	(-81,2)	(108,71)	(-106,0)	(-14,15)	
L1D 55>	(-36,2)	(4,1)	(121,1)	(-78,1)	(-74,0)	(1,1)	(-35,0)	(110,0)	(-63,5)	(-34,1)	(-55,78)	(13,7)	(3,0)	(-76,9)	(0,1)	(-37,0)	
L1D 56>	(-48,107)	(-49,0)	(-55,38)	(0,8)	(-11,2)	(2,0)	(-56,20)	(-62,0)	(-58,2)	(-57,2)	(-54,0)	(-10,0)	(-40,0)	(84,0)	(4,3)	(112,0)	
L1D 57>	(-47,91)	(-45,1)	(0,0)	(-57,27)	(-80,0)	(1,0)	(2,102)	(-40,6)	(-44,1)	(-75,4)	(-78,3)	(116,0)	(171,0)	(-76,0)	(-48,11)	(113,0)	
L1D 58>	(0,2)	(170,9)	(-45,1)	(-57,1)	(-56,19)	(116,4)	(1,1)	(-47,107)	(-192,0)	(4,8)	(3,0)	(114,0)	(-58,4)	(-62,2)	(-11,4)	(118,2)	
L1D 59>	(4,35)	(2,0)	(-45,0)	(118,0)	(-58,38)	(-40,0)	(-56,69)	(6,0)	(-44,0)	(-60,11)	(40,0)	(-47,0)	(-48,38)	(-51,0)	(1,0)	(3,0)	
L1D 60>	(39,71)	(-60,73)	(38,37)	(18,39)	(-61,22)	(0,4)	(-47,1)	(-44,1)	(321,3)	(-352,0)	(120,1)	(-59,0)	(122,0)	(295,0)	(-55,0)	(-69,0)	
L1D 61>	(-58,1)	(-7,1)	(-62,97)	(-47,0)	(39,7)	(-60,8)	(38,4)	(121,0)	(18,1)	(37,0)	(-8,0)	(0,14)	(-6,2)	(-69,0)	(-25,0)	(1,0)	
L1D 62>	(196,117)	(37,10)	(-61,1)	(0,1)	(-47,23)	(2,1)	(1,0)	(3,1)	(124,1)	(8,0)	(20,0)	(123,0)	(-62,1)	(-44,0)	(-66,0)	(114,0)	
L1D 63>	(2,61)	(125,0)	(-40,4)	(0,0)	(214,0)	(17,0)	(-64,0)	(7,3)	(6,0)	(-18,3)	(-47,116)	(-45,13)	(-44,4)	(-61,4)	(-72,0)	(49,0)	
L1D 64>	(-108,0)	(-11,80)	(0,4)	(-63,0)	(1,2)	(127,0)	(-64,0)	(166,0)	(-127,0)	(-73,0)	(128,0)	(-1,0)	(2,0)	(-68,0)	(130,0)	(1,0)	
L1D 65>	(-67,86)	(-70,5)	(0,3)	(-59,0)	(17,0)	(-65,0)	(-28,0)	(5,0)	(130,0)	(-74,0)	(132,0)	(1,0)	(1,0)	(1,0)	(1,0)	(1,0)	
L1D 66>	(-68,69)	(4,105)	(114,0)	(-70,9)	(-67,9)	(17,0)	(-59,0)	(182,0)	(280,0)	(-6,0)	(-66,3)	(-69,72)	(132,0)	(0,0)	(-72,1)	(1,0)	
L1D 67>	(4,106)	(-70,9)	(46,5)	(-110,79)	(47,1)	(68,3)	(-79,10)	(134,8)	(-68,83)	(-77,48)	(-78,95)	(-71,3)	(-75,4)	(13,47)	(-114,7)	(-67,98)	
L1D 68>	(-62,52)	(-67,76)	(114,8)	(180,0)	(-6,0)	(-68,1)	(136,0)	(40,0)	(164,0)	(-70,7)	(-28,0)	(82,0)	(188,0)	(182,0)	(135,0)	(-20,0)	
L1D 69>	(-2,14)	(46,6)	(2,1)	(4,5)	(0,3)	(3,3)	(93,3)	(-64,6)	(-1,1)	(1,7)	(-67,79)	(-47,77)	(137,3)	(138,1)	(-69,1)	(-4,2)	
L1D 70>	(288,1)	(139,1)	(152,6)	(7,78)	(0,12)	(9,8)	(114,0)	(-40,24)	(1,0)	(6,105)	(-69,2)	(138,2)	(-70,7)	(140,7)	(142,3)	(-19,1)	
L1D 71>	(81,1)	(46,1)	(141,1)	(-7,1)	(41,1)	(4,4)	(2,0)	(-70,127)	(93,7)	(-243,0)	(1,0)	(3,0)	(-40,8)	(-68,5)	(-4,1)	(-71,0)	
L1D 72>	(4,51)	(-78,1)	(-72,1)	(144,0)	(-70,11)	(-73,6)	(-68,33)	(-71,69)	(-6,1)	(-67,20)	(-80,0)	(-66,70)	(-76,2)	(2,1)	(-74,13)	(0,0)	
L1D 73>	(0,5)	(-123,0)	(-82,66)	(-311,0)	(4,2)	(1,3)	(2,0)	(145,0)	(146,0)	(-73,0)	(-245,0)	(-6,0)	(-75,0)	(-74,3)	(24,0)	(-28,0)	
L1D 74>	(-108,1)	(-72,4)	(2,93)	(9,2)	(0,41)	(148,0)	(-1,0)	(202,0)	(362,0)	(-77,2)	(150,0)	(-34,0)	(-73,0)	(147,0)	(-56,0)	(120,0)	
L1D 75>	(-74,15)	(68,0)	(-75,3)	(1,1)	(0,9)	(2,7)	(16,81)	(312,0)	(149,0)	(47,0)	(5,0)	(-72,0)	(3,0)	(150,0)	(-407,0)	(4,2)	
L1D 76>	(-82,13)	(-4,12)	(40,43)	(-75,49)	(-2,18)	(-78,15)	(-1,100)	(0,52)	(4,41)	(1,4)	(-36,25)	(-77,43)	(41,27)	(5,12)	(-30,9)	(154,1)	
L1D 77>	(-79,85)	(-86,1)	(-80,6)	(-7,1)	(4,56)	(-81,10)	(5,0)	(-78,19)	(-76,1)	(-73,0)	(-82,0)	(2,0)	(-39,0)	(80,1)	(-1,0)	(-36,1)	
L1D 78>	(11,3)	(-78,100)	(20,14)	(-86,2)	(4,16)	(44,0)	(-79,3)	(-81,3)	(-4,0)	(-117,0)	(-18,17)	(9,10)	(5,1)	(-77,8)	(21,3)	(-82,0)	
L1D 79>	(-78,75)	(41,7)	(4,0)	(-3,3)	(40,0)	(-76,0)	(20,0)	(14,0)	(-8,14)	(158,0)	(-2,1)	(-77,0)	(-18,0)	(-89,2)	(-79,0)	(-80,0)	
L1D 80>	(-53,1)	(7,1)	(-3,18)	(9,86)	(-36,1)	(86,0)	(138,0)	(40,4)	(-8,12)	(-84,44)	(35,1)	(5,1)	(41,2)	(186,0)	(-80,1)	(108,1)	
L1D 81>	(-188,1)	(-81,5)	(40,67)	(-82,4)	(0,1)	(-79,1)	(41,12)	(-324,0)	(-40,14)	(-41,25)	(-183,2)	(-284,0)	(-9,2)	(4,2)	(-4,13)	(5,1)	
L1D 82>	(-86,19)	(4,58)	(42,2)	(-9,1)	(-107,25)	(-78,81)	(-184,11)	(5,3)	(35,11)	(-42,5)	(-77,40)	(-84,1)	(-82,7)	(-76,7)	(-5,18)	(-81,21)	
[...]
L1D 477>	(4,5)	(3,1)	(1,0)	(1,0)	(1,0)	(1,0)	(1,0)	(1,0)	(1,0)	(1,0)	(1,0)	(1,0)	(1,0)	(1,0)	(1,0)	(1,0)	
L1D 478>	(1,1)	(1,0)	(1,0)	(1,0)	(1,0)	(1,0)	(1,0)	(1,0)	(1,0)	(1,0)	(1,0)	(1,0)	(1,0)	(1,0)	(1,0)	(1,0)	
L1D 479>	(4,4)	(0,1)	(-48,1)	(1,0)	(1,0)	(1,0)	(1,0)	(1,0)	(1,0)	(1,0)	(1,0)	(1,0)	(1,0)	(1,0)	(1,0)	(1,0)	
L1D 480>	(4,1)	(1,1)	(0,1)	(1,0)	(1,0)	(1,0)	(1,0)	(1,0)	(1,0)	(1,0)	(1,0)	(1,0)	(1,0)	(1,0)	(1,0)	(1,0)	
L1D 481>	(4,7)	(3,1)	(1,0)	(1,0)	(1,0)	(1,0)	(1,0)	(1,0)	(1,0)	(1,0)	(1,0)	(1,0)	(1,0)	(1,0)	(1,0)	(1,0)	
L1D 482>	(1,1)	(4,2)	(-484,1)	(-282,1)	(1,0)	(1,0)	(1,0)	(1,0)	(1,0)	(1,0)	(1,0)	(1,0)	(1,0)	(1,0)	(1,0)	(1,0)	
L1D 483>	(0,3)	(4,5)	(1,1)	(1,0)	(1,0)	(1,0)	(1,0)	(1,0)	(1,0)	(1,0)	(1,0)	(1,0)	(1,0)	(1,0)	(1,0)	(1,0)	
L1D 484>	(1,0)	(1,0)	(1,0)	(1,0)	(1,0)	(1,0)	(1,0)	(1,0)	(1,0)	(1,0)	(1,0)	(1,0)	(1,0)	(1,0)	(1,0)	(1,0)	
L1D 485>	(4,4)	(1,0)	(1,0)	(1,0)	(1,0)	(1,0)	(1,0)	(1,0)	(1,0)	(1,0)	(1,0)	(1,0)	(1,0)	(1,0)	(1,0)	(1,0)	
L1D 486>	(4,2)	(-92,1)	(1,1)	(1,0)	(1,0)	(1,0)	(1,0)	(1,0)	(1,0)	(1,0)	(1,0)	(1,0)	(1,0)	(1,0)	(1,0)	(1,0)	
L1D 487>	(4,1)	(1,0)	(1,0)	(1,0)	(1,0)	(1,0)	(1,0)	(1,0)	(1,0)	(1,0)	(1,0)	(1,0)	(1,0)	(1,0)	(1,0)	(1,0)	
L1D 488>	(1,0)	(1,0)	(1,0)	(1,0)	(1,0)	(1,0)	(1,0)	(1,0)	(1,0)	(1,0)	(1,0)	(1,0)	(1,0)	(1,0)	(1,0)	(1,0)	
L1D 489>	(4,1)	(0,1)	(1,0)	(1,0)	(1,0)	(1,0)	(1,0)	(1,0)	(1,0)	(1,0)	(1,0)	(1,0)	(1,0)	(1,0)	(1,0)	(1,0)	
L1D 490>	(-491,1)	(1,2)	(-204,1)	(0,1)	(1,0)	(1,0)	(1,0)	(1,0)	(1,0)	(1,0)	(1,0)	(1,0)	(1,0)	(1,0)	(1,0)	(1,0)	
L1D 491>	(-491,1)	(1,1)	(1,0)	(1,0)	(1,0)	(1,0)	(1,0)	(1,0)	(1,0)	(1,0)	(1,0)	(1,0)	(1,0)	(1,0)	(1,0)	(1,0)	
L1D 492>	(1,1)	(-10,1)	(2,1)	(0,1)	(-48,1)	(-492,1)	(1,0)	(1,0)	(1,0)	(1,0)	(1,0)	(1,0)	(1,0)	(1,0)	(1,0)	(1,0)	
L1D 493>	(4,1)	(1,0)	(1,0)	(1,0)	(1,0)	(1,0)	(1,0)	(1,0)	(1,0)	(1,0)	(1,0)	(1,0)	(1,0)	(1,0)	(1,0)	(1,0)	
L1D 494>	(1,2)	(-10,1)	(1,0)	(1,0)	(1,0)	(1,0)	(1,0)	(1,0)	(1,0)	(1,0)	(1,0)	(1,0)	(1,0)	(1,0)	(1,0)	(1,0)	
L1D 495>	(4,1)	(1,0)	(1,0)	(1,0)	(1,0)	(1,0)	(1,0)	(1,0)	(1,0)	(1,0)	(1,0)	(1,0)	(1,0)	(1,0)	(1,0)	(1,0)	
L1D 496>	(1,0)	(1,0)	(1,0)	(1,0)	(1,0)	(1,0)	(1,0)	(1,0)	(1,0)	(1,0)	(1,0)	(1,0)	(1,0)	(1,0)	(1,0)	(1,0)	
L1D 497>	(0,1)	(1,0)	(1,0)	(1,0)	(1,0)	(1,0)	(1,0)	(1,0)	(1,0)	(1,0)	(1,0)	(1,0)	(1,0)	(1,0)	(1,0)	(1,0)	
L1D 498>	(4,1)	(1,0)	(1,0)	(1,0)	(1,0)	(1,0)	(1,0)	(1,0)	(1,0)	(1,0)	(1,0)	(1,0)	(1,0)	(1,0)	(1,0)	(1,0)	
L1D 499>	(1,0)	(1,0)	(1,0)	(1,0)	(1,0)	(1,0)	(1,0)	(1,0)	(1,0)	(1,0)	(1,0)	(1,0)	(1,0)	(1,0)	(1,0)	(1,0)	
L1D 500>	(-488,1)	(1,0)	(1,0)	(1,0)	(1,0)	(1,0)	(1,0)	(1,0)	(1,0)	(1,0)	(1,0)	(1,0)	(1,0)	(1,0)	(1,0)	(1,0)	
L1D 501>	(4,1)	(1,0)	(1,0)	(1,0)	(1,0)	(1,0)	(1,0)	(1,0)	(1,0)	(1,0)	(1,0)	(1,0)	(1,0)	(1,0)	(1,0)	(1,0)	
L1D 502>	(1,1)	(1,0)	(1,0)	(1,0)	(1,0)	(1,0)	(1,0)	(1,0)	(1,0)	(1,0)	(1,0)	(1,0)	(1,0)	(1,0)	(1,0)	(1,0)	
L1D 503>	(4,1)	(1,0)	(1,0)	(1,0)	(1,0)	(1,0)	(1,0)	(1,0)	(1,0)	(1,0)	(1,0)	(1,0)	(1,0)	(1,0)	(1,0)	(1,0)	
L1D 504>	(1,0)	(1,0)	(1,0)	(1,0)	(1,0)	(1,0)	(1,0)	(1,0)	(1,0)	(1,0)	(1,0)	(1,0)	(1,0)	(1,0)	(1,0)	(1,0)	
L1D 505>	(1,0)	(1,0)	(1,0)	(1,0)	(1,0)	(1,0)	(1,0)	(1,0)	(1,0)	(1,0)	(1,0)	(1,0)	(1,0)	(1,0)	(1,0)	(1,0)	
L1D 506>	(0,1)	(1,0)	(1,0)	(1,0)	(1,0)	(1,0)	(1,0)	(1,0)	(1,0)	(1,0)	(1,0)	(1,0)	(1,0)	(1,0)	(1,0)	(1,0)	
L1D 507>	(1,0)	(1,0)	(1,0)	(1,0)	(1,0)	(1,0)	(1,0)	(1,0)	(1,0)	(1,0)	(1,0)	(1,0)	(1,0)	(1,0)	(1,0)	(1,0)	
L1D 508>	(1,0)	(1,0)	(1,0)	(1,0)	(1,0)	(1,0)	(1,0)	(1,0)	(1,0)	(1,0)	(1,0)	(1,0)	(1,0)	(1,0)	(1,0)	(1,0)	
L1D 509>	(1,0)	(1,0)	(1,0)	(1,0)	(1,0)	(1,0)	(1,0)	(1,0)	(1,0)	(1,0)	(1,0)	(1,0)	(1,0)	(1,0)	(1,0)	(1,0)	
L1D 510>	(1,0)	(1,0)	(1,0)	(1,0)	(1,0)	(1,0)	(1,0)	(1,0)	(1,0)	(1,0)	(1,0)	(1,0)	(1,0)	(1,0)	(1,0)	(1,0)	
L1D 511>	(1,0)	(1,0)	(1,0)	(1,0)	(1,0)	(1,0)	(1,0)	(1,0)	(1,0)	(1,0)	(1,0)	(1,0)	(1,0)	(1,0)	(1,0)	(1,0)	

L2C -64>	(1,149)	(2,78)	(3,24)	(-3,22)	(10,5)	(4,11)	(-1,20)	(-2,56)	(11,7)	(0,5)	(-37,1)	(6,4)	(9,3)	(5,7)	(7,5)	(-5,4)	
L2C -63>	(15,0)	(1,242)	(3,9)	(2,0)	(4,0)	(1,0)	(1,0)	(1,0)	(1,0)	(1,0)	(1,0)	(1,0)	(1,0)	(1,0)	(1,0)	(1,0)	
L2C -62>	(1,16)	(-1,3)	(18,3)	(2,2)	(0,1)	(4,2)	(11,1)	(13,1)	(3,1)	(1,0)	(1,0)	(1,0)	(1,0)	(1,0)	(1,0)	(1,0)	
L2C -61>	(1,11)	(9,2)	(-1,2)	(3,2)	(7,2)	(11,2)	(2,2)	(43,1)	(18,1)	(5,1)	(1,0)	(1,0)	(1,0)	(1,0)	(1,0)	(1,0)	
L2C -60>	(1,17)	(46,1)	(8,1)	(9,1)	(12,1)	(18,1)	(11,2)	(-1,1)	(43,1)	(44,1)	(2,1)	(32,1)	(4,1)	(1,0)	(1,0)	(1,0)	
L2C -59>	(43,2)	(7,1)	(1,13)	(11,7)	(17,1)	(9,1)	(2,1)	(15,1)	(42,1)	(-1,2)	(1,0)	(1,0)	(1,0)	(1,0)	(1,0)	(1,0)	
L2C -58>	(1,12)	(3,3)	(4,1)	(11,32)	(51,1)	(43,1)	(34,2)	(9,1)	(22,7)	(16,2)	(6,1)	(10,1)	(7,1)	(18,1)	(56,1)	(-4,1)	
L2C -57>	(11,39)	(9,13)	(1,36)	(-1,3)	(8,1)	(12,2)	(40,1)	(22,5)	(2,2)	(6,3)	(57,1)	(44,1)	(49,2)	(53,2)	(0,2)	(47,3)	
L2C -56>	(1,5)	(11,189)	(3,1)	(57,1)	(44,0)	(4,0)	(46,0)	(55,0)	(9,6)	(40,0)	(22,28)	(2,1)	(8,0)	(-1,3)	(33,3)	(7,1)	
L2C -55>	(14,5)	(1,26)	(21,6)	(8,7)	(10,44)	(11,5)	(-1,15)	(32,4)	(4,1)	(24,1)	(43,1)	(12,2)	(41,1)	(33,1)	(28,1)	(39,1)	
L2C -54>	(1,22)	(41,3)	(11,10)	(9,4)	(26,2)	(6,10)	(3,5)	(22,2)	(-1,6)	(47,2)	(31,3)	(-2,2)	(7,3)	(46,1)	(12,1)	(52,2)	
L2C -53>	(1,17)	(14,2)	(54,7)	(32,2)	(-1,2)	(3,7)	(20,1)	(27,1)	(11,7)	(5,2)	(6,1)	(51,3)	(10,3)	(49,2)	(13,2)	(7,2)	
L2C -52>	(4,1)	(1,62)	(2,7)	(0,2)	(53,3)	(9,6)	(26,1)	(6,3)	(43,3)	(-1,4)	(22,2)	(3,3)	(51,2)	(13,2)	(8,4)	(11,6)	
L2C -51>	(2,3)	(1,63)	(3,8)	(49,3)	(-1,7)	(6,3)	(48,1)	(52,2)	(4,3)	(5,4)	(11,5)	(9,1)	(10,2)	(38,3)	(41,2)	(44,1)	
L2C -50>	(1,34)	(49,1)	(18,1)	(-1,6)	(29,1)	(37,1)	(51,3)	(-2,3)	(11,4)	(-3,5)	(2,9)	(3,3)	(46,1)	(5,2)	(33,1)	(47,3)	
L2C -49>	(-3,2)	(1,34)	(16,2)	(5,3)	(6,4)	(7,2)	(-1,6)	(-5,1)	(11,5)	(23,1)	(49,4)	(43,1)	(4,3)	(18,1)	(14,3)	(0,2)	
L2C -48>	(49,2)	(-4,4)	(9,3)	(8,5)	(1,34)	(3,4)	(-1,14)	(48,2)	(11,18)	(17,1)	(-10,1)	(5,13)	(10,5)	(20,1)	(2,5)	(15,3)	
L2C -47>	(1,25)	(11,26)	(3,3)	(13,5)	(10,2)	(2,9)	(27,1)	(51,1)	(22,1)	(7,3)	(12,2)	(-1,8)	(41,1)	(24,1)	(-3,1)	(6,1)	
L2C -46>	(1,29)	(3,4)	(46,3)	(11,50)	(44,7)	(-5,1)	(2,4)	(42,4)	(6,7)	(-7,1)	(25,2)	(47,1)	(-3,3)	(4,6)	(-1,12)	(-11,1)	
L2C -45>	(1,9)	(11,143)	(33,1)	(2,1)	(-5,0)	(22,20)	(44,0)	(8,1)	(12,0)	(18,1)	(5,1)	(20,0)	(6,0)	(-2,1)	(-1,4)	(9,1)	
L2C -44>	(10,77)	(1,34)	(2,27)	(-1,16)	(4,4)	(8,5)	(44,16)	(14,8)	(5,5)	(15,4)	(25,2)	(7,14)	(-11,10)	(3,2)	(11,14)	(21,3)	
L2C -43>	(11,6)	(5,16)	(49,1)	(42,3)	(1,72)	(2,15)	(-1,21)	(10,6)	(50,1)	(-2,4)	(8,5)	(16,5)	(17,2)	(3,27)	(-15,1)	(9,12)	
L2C -42>	(17,1)	(-1,19)	(1,38)	(2,24)	(43,13)	(32,1)	(13,4)	(20,3)	(18,2)	(11,8)	(-9,3)	(10,3)	(4,5)	(51,1)	(-2,3)	(7,3)	
L2C -41>	(1,59)	(3,13)	(2,33)	(10,10)	(9,6)	(37,43)	(34,4)	(-1,17)	(43,64)	(0,17)	(7,1)	(16,2)	(42,4)	(-2,5)	(5,9)	(-5,5)	
L2C -40>	(10,11)	(2,20)	(1,67)	(41,8)	(-4,3)	(48,8)	(5,54)	(19,3)	(-1,8)	(43,29)	(3,9)	(32,2)	(-2,4)	(13,2)	(20,9)	(22,1)	
L2C -39>	(1,91)	(5,17)	(39,8)	(0,5)	(37,5)	(18,3)	(43,2)	(3,4)	(-17,3)	(10,5)	(-3,1)	(2,26)	(40,12)	(-4,3)	(11,1)	(12,1)	
L2C -38>	(5,18)	(1,67)	(2,19)	(3,8)	(20,5)	(11,4)	(6,4)	(-1,8)	(36,7)	(9,7)	(41,4)	(0,5)	(39,26)	(43,6)	(40,5)	(50,1)	
L2C -37>	(1,47)	(2,28)	(33,9)	(5,17)	(40,5)	(-1,10)	(3,19)	(38,6)	(8,3)	(18,15)	(4,9)	(43,1)	(-2,2)	(-5,4)	(32,3)	(11,17)	
L2C -36>	(1,79)	(37,6)	(2,34)	(40,7)	(11,35)	(3,14)	(-1,11)	(13,3)	(10,6)	(39,5)	(0,12)	(36,8)	(5,18)	(18,1)	(33,14)	(-2,6)	
L2C -35>	(1,109)	(22,1)	(3,16)	(32,2)	(10,8)	(40,4)	(37,2)	(0,7)	(9,3)	(6,8)	(2,31)	(26,2)	(11,30)	(-1,9)	(5,34)	(12,8)	
L2C -34>	(1,59)	(35,5)	(-1,8)	(2,20)	(9,1)	(19,2)	(11,223)	(-2,2)	(3,7)	(33,3)	(18,3)	(22,35)	(41,1)	(-3,3)	(7,3)	(-6,4)	
L2C -33>	(1,75)	(14,10)	(-1,27)	(3,21)	(10,56)	(-2,8)	(11,18)	(-11,9)	(20,11)	(2,48)	(15,7)	(38,1)	(34,5)	(33,10)	(12,5)	(5,14)	
L2C -32>	(1,106)	(3,32)	(8,11)	(2,71)	(11,8)	(10,5)	(-1,21)	(16,3)	(33,23)	(4,2)	(21,3)	(19,1)	(32,1)	(7,3)	(5,8)	(9,2)	
L2C -31>	(1,98)	(32,7)	(2,51)	(3,43)	(0,17)	(-10,4)	(36,3)	(7,6)	(-2,6)	(9,2)	(35,3)	(10,1)	(-1,17)	(21,3)	(4,3)	(5,46)	
L2C -30>	(2,73)	(1,145)	(9,6)	(-6,3)	(15,1)	(3,18)	(0,15)	(10,7)	(31,20)	(5,14)	(18,3)	(-4,2)	(-1,13)	(-14,3)	(-3,18)	(28,4)	
L2C -29>	(1,125)	(2,49)	(20,6)	(31,5)	(25,4)	(3,21)	(11,9)	(9,55)	(8,26)	(5,10)	(0,9)	(13,3)	(6,1)	(-1,14)	(18,4)	(26,2)	
L2C -28>	(1,101)	(-16,4)	(5,14)	(-3,7)	(2,37)	(3,21)	(-1,19)	(11,9)	(12,4)	(10,1)	(22,3)	(29,8)	(4,2)	(21,2)	(9,5)	(-11,3)	
L2C -27>	(3,25)	(2,62)	(0,6)	(1,85)	(-5,5)	(17,9)	(16,11)	(5,15)	(-1,30)	(4,5)	(-8,3)	(34,1)	(46,2)	(-2,17)	(-9,4)	(-4,3)	
L2C -26>	(-1,37)	(19,1)	(1,65)	(5,42)	(16,7)	(6,7)	(8,4)	(17,10)	(31,3)	(2,54)	(-13,3)	(28,2)	(4,13)	(-5,3)	(18,6)	(29,2)	
L2C -25>	(1,85)	(2,19)	(-1,36)	(5,25)	(11,42)	(21,6)	(13,4)	(22,3)	(10,7)	(12,5)	(6,2)	(48,3)	(19,2)	(8,1)	(25,1)	(27,8)	
L2C -24>	(11,32)	(3,18)	(-1,35)	(1,125)	(15,1)	(9,10)	(4,9)	(2,18)	(10,11)	(17,10)	(7,4)	(5,28)	(24,3)	(12,8)	(16,8)	(25,9)	
L2C -23>	(1,37)	(-6,2)	(16,1)	(-2,2)	(11,143)	(21,1)	(5,6)	(17,5)	(22,12)	(15,1)	(2,5)	(-1,15)	(6,1)	(9,1)	(-5,2)	(10,3)	
L2C -22>	(1,100)	(-10,1)	(7,5)	(11,23)	(2,21)	(30,2)	(-2,14)	(-1,51)	(8,7)	(13,10)	(-11,14)	(-14,3)	(-7,5)	(16,13)	(10,94)	(5,17)	
L2C -21>	(1,105)	(2,92)	(-3,6)	(17,35)	(-8,30)	(10,22)	(4,9)	(-1,45)	(-11,15)	(48,1)	(20,4)	(42,5)	(11,15)	(-2,14)	(5,71)	(0,5)	
L2C -20>	(2,18)	(1,118)	(10,21)	(-12,5)	(6,12)	(-1,25)	(14,6)	(7,6)	(-3,7)	(11,20)	(5,32)	(42,5)	(3,9)	(31,1)	(19,8)	(-20,2)	
L2C -19>	(-1,35)	(18,14)	(1,155)	(3,90)	(11,14)	(9,11)	(-7,1)	(17,5)	(5,16)	(10,12)	(2,39)	(20,18)	(-11,3)	(-14,4)	(12,7)	(-25,4)	
L2C -18>	(1,133)	(20,0)	(0,4)	(2,35)	(-2,5)	(-1,9)	(17,5)	(-5,2)	(3,7)	(9,3)	(-15,1)	(16,12)	(5,8)	(25,1)	(4,7)	(19,51)	
L2C -17>	(1,237)	(2,17)	(0,3)	(3,13)	(18,81)	(-11,7)	(29,4)	(-2,75)	(19,38)	(-5,8)	(5,9)	(26,4)	(-6,1)	(28,4)	(30,2)	(-3,1)	
L2C -16>	(1,118)	(4,1)	(16,46)	(2,233)	(0,70)	(20,4)	(-3,16)	(13,11)	(17,18)	(3,238)	(-2,17)	(5,65)	(15,11)	(8,8)	(-1,25)	(23,5)	
L2C -15>	(1,124)	(3,8)	(4,8)	(10,11)	(2,25)	(20,6)	(13,12)	(16,15)	(17,21)	(-8,6)	(7,7)	(22,3)	(-2,8)	(5,39)	(11,26)	(-6,1)	
L2C -14>	(1,157)	(11,48)	(8,2)	(2,96)	(3,23)	(15,37)	(-5,6)	(27,3)	(-1,28)	(-6,9)	(-9,10)	(16,6)	(5,32)	(20,8)	(14,4)	(13,10)	
L2C -13>	(1,236)	(2,20)	(8,10)	(-1,31)	(5,43)	(24,4)	(3,1)	(13,8)	(14,37)	(-6,4)	(12,18)	(19,2)	(23,4)	(-11,6)	(11,22)	(-9,6)	
L2C -12>	(2,13)	(1,62)	(22,8)	(11,194)	(20,1)	(13,10)	(-10,3)	(5,11)	(-1,28)	(8,4)	(4,3)	(12,5)	(10,8)	(23,5)	(-3,6)	(19,2)	
L2C -11>	(1,107)	(6,19)	(2,53)	(5,55)	(15,18)	(17,19)	(-17,1)	(-1,62)	(-11,30)	(3,33)	(8,11)	(9,14)	(4,9)	(12,26)	(13,9)	(10,85)	
L2C -10>	(-3,9)	(11,44)	(13,1)	(1,205)	(-2,12)	(-17,6)	(15,22)	(-11,6)	(0,72)	(-1,55)	(14,14)	(6,6)	(5,51)	(2,26)	(8,27)	(22,10)	
L2C -9>	(10,50)	(1,173)	(2,33)	(13,10)	(11,22)	(15,13)	(6,45)	(5,36)	(-3,1)	(-1,46)	(22,6)	(3,17)	(-17,10)	(19,8)	(50,2)	(8,37)	
L2C -8>	(5,50)	(1,181)	(6,27)	(22,13)	(12,10)	(2,31)	(-1,64)	(4,29)	(9,48)	(-17,1)	(25,14)	(10,47)	(17,7)	(3,22)	(-2,10)	(8,26)	
L2C -7>	(1,134)	(10,23)	(7,18)	(-1,37)	(2,16)	(9,37)	(-9,8)	(3,14)	(-2,1)	(11,9)	(-20,1)	(5,52)	(13,3)	(8,18)	(-6,4)	(4,14)	
L2C -6>	(1,246)	(3,37)	(2,66)	(9,27)	(5,69)	(17,1)	(4,67)	(0,29)	(-7,10)	(7,88)	(-1,151)	(22,18)	(11,23)	(6,129)	(-5,9)	(20,20)	
L2C -5>	(2,55)	(1,224)	(3,61)	(4,38)	(-1,83)	(-3,16)	(7,20)	(6,72)	(-4,10)	(22,9)	(5,45)	(10,21)	(0,35)	(-7,19)	(-16,1)	(14,6)	
L2C -4>	(1,172)	(0,31)	(5,85)	(-1,86)	(-27,9)	(3,97)	(2,96)	(22,7)	(7,23)	(6,35)	(11,13)	(-3,28)	(9,14)	(10,10)	(-8,1)	(-33,9)	
L2C -3>	(1,248)	(2,70)	(-1,60)	(11,13)	(4,191)	(6,8)	(-2,30)	(-23,1)	(10,8)	(22,59)	(0,31)	(5,38)	(3,54)	(-32,5)	(-38,3)	(9,3)	
L2C -2>	(-2,6)	(6,7)	(4,17)	(-1,137)	(-14,3)	(1,155)	(3,61)	(27,3)	(-9,4)	(0,240)	(-5,3)	(5,5)	(-10,1)	(2,41)	(-3,9)	(-56,2)	
L2C -1>	(5,9)	(-1,181)	(1,99)	(4,16)	(-4,8)	(3,146)	(-2,18)	(-16,3)	(-17,6)	(11,8)	(-3,12)	(50,1)	(2,143)	(0,65)	(7,4)	(-8,2)	
L2C 0>	(-6,2)	(-1,48)	(1,5)	(0,162)	(-2,1)	(29,0)	(-57,0)	(6,0)	(8,0)	(-5,1)	(5,0)	(-3,1)	(-4,1)	(2,1)	(3,0)	(-11,0)	
L2C 1>	(1,178)	(-25,1)	(-8,1)	(10,0)	(2,6)	(-15,0)	(-1,1)	(3,4)	(-63,1)	(-2,1)	(5,6)	(18,0)	(-3,0)	(-5,0)	(4,6)	(0,0)	
L2C 2>	(1,180)	(-4,2)	(-3,8)	(2,30)	(-1,47)	(4,24)	(-55,1)	(0,7)	(-41,2)	(5,12)	(20,1)	(18,11)	(3,21)	(22,1)	(-2,6)	(-28,1)	
L2C 3>	(-2,14)	(1,183)	(0,3)	(4,9)	(2,20)	(-1,31)	(-4,12)	(8,1)	(21,1)	(25,1)	(-3,7)	(19,1)	(18,2)	(35,1)	(5,11)	(3,12)	
L2C 4>	(18,4)	(1,233)	(-12,1)	(3,48)	(-3,10)	(-14,1)	(-5,2)	(2,19)	(-2,9)	(-1,7)	(5,44)	(0,1)	(-8,1)	(-4,2)	(4,44)	(-23,1)	
L2C 5>	(6,19)	(5,238)	(4,1)	(1,42)	(-2,4)	(-41,3)	(-4,8)	(-43,4)	(2,3)	(10,30)	(-16,6)	(-1,7)	(-28,2)	(-40,6)	(8,6)	(-14,2)	
L2C 6>	(1,248)	(-8,12)	(3,42)	(2,44)	(17,6)	(14,60)	(-5,27)	(-44,1)	(18,7)	(-6,37)	(-4,33)	(-1,47)	(4,6)	(10,24)	(5,206)	(0,48)	
L2C 7>	(1,241)	(14,108)	(-2,34)	(-6,86)	(2,64)	(-1,50)	(-3,1)	(-24,4)	(-7,8)	(3,29)	(6,4)	(17,7)	(-11,7)	(26,5)	(-5,20)	(-4,24)	
L2C 8>	(1,174)	(14,12)	(5,23)	(-11,15)	(2,53)	(-2,22)	(19,4)	(18,1)	(0,12)	(3,17)	(-3,15)	(11,46)	(16,5)	(4,15)	(-7,38)	(-10,10)	
L2C 9>	(1,225)	(7,1)	(-1,22)	(11,92)	(16,6)	(-7,3)	(14,15)	(-8,18)	(-12,14)	(-22,5)	(10,11)	(-46,7)	(-11,13)	(2,26)	(-4,7)	(-10,15)	
L2C 10>	(11,70)	(10,19)	(-23,3)	(1,44)	(2,8)	(-35,1)	(5,128)	(-11,21)	(-9,7)	(-21,2)	(-4,3)	(-12,3)	(-5,3)	(-1,10)	(3,4)	(-6,3)	
L2C 11>	(-33,1)	(-44,4)	(-12,3)	(11,152)	(18,0)	(-24,0)	(1,3)	(-56,10)	(22,5)	(-34,11)	(-45,20)	(-1,2)	(-23,8)	(5,3)	(-22,5)	(52,0)	
L2C 12>	(1,156)	(-5,19)	(11,28)	(-11,26)	(2,22)	(-20,6)	(5,62)	(10,10)	(3,21)	(-13,15)	(-8,1)	(22,3)	(18,5)	(-1,79)	(-4,15)	(-15,7)	
L2C 13>	(-14,29)	(1,172)	(-12,19)	(5,33)	(2,32)	(4,27)	(-10,9)	(-11,14)	(-15,7)	(-1,8)	(11,14)	(-18,8)	(-9,1)	(-16,14)	(-19,6)	(-5,19)	
L2C 14>	(-13,27)	(1,154)	(-16,1)	(2,32)	(-18,7)	(-12,9)	(-8,4)	(4,10)	(3,8)	(-17,36)	(5,34)	(-6,5)	(0,17)	(-26,3)	(-1,23)	(-2,13)	
L2C 15>	(1,140)	(-16,15)	(-14,35)	(2,36)	(5,127)	(-4,9)	(-1,17)	(-9,13)	(-22,6)	(-13,13)	(-21,7)	(21,1)	(-18,8)	(-11,8)	(4,8)	(-26,5)	
L2C 16>	(1,123)	(-15,20)	(-16,68)	(-14,11)	(-10,20)	(22,1)	(2,81)	(-17,38)	(3,18)	(-29,3)	(5,91)	(17,2)	(-23,6)	(10,12)	(-22,13)	(0,19)	
L2C 17>	(-16,31)	(-9,7)	(1,126)	(-15,22)	(-18,36)	(-27,6)	(-22,6)	(-17,15)	(38,1)	(-1,14)	(-41,3)	(-7,6)	(2,32)	(-14,9)	(-2,7)	(10,6)	
L2C 18>	(-13,2)	(-17,187)	(1,10)	(3,1)	(20,1)	(2,1)	(30,1)	(-24,1)	(-2,1)	(-1,1)	(5,3)	(-55,1)	(-30,1)	(14,1)	(19,2)	(-16,25)	
L2C 19>	(-1,119)	(-16,71)	(-2,10)	(-18,238)	(1,122)	(-22,6)	(2,51)	(5,21)	(11,11)	(12,1)	(-17,21)	(-33,5)	(3,11)	(-27,4)	(-21,11)	(-7,3)	
L2C 20>	(5,45)	(-17,94)	(-1,21)	(33,9)	(11,24)	(1,71)	(-7,1)	(-10,8)	(-18,25)	(-4,6)	(-21,14)	(3,14)	(-22,12)	(-19,17)	(0,4)	(-29,9)	
L2C 21>	(33,15)	(-20,15)	(1,93)	(5,40)	(-17,17)	(3,8)	(-1,22)	(-10,7)	(22,8)	(-27,1)	(4,4)	(-2,11)	(-26,3)	(21,5)	(-28,2)	(11,23)	
L2C 22>	(33,10)	(1,66)	(-56,47)	(-20,6)	(-16,5)	(-34,10)	(-1,16)	(7,3)	(-15,5)	(-18,222)	(-33,6)	(11,232)	(-32,1)	(-45,20)	(-23,31)	(-17,6)	
L2C 23>	(1,94)	(-21,13)	(-1,12)	(-15,7)	(2,15)	(5,17)	(10,1)	(-22,12)	(4,2)	(-12,11)	(-18,4)	(-3,4)	(-16,48)	(3,3)	(-17,12)	(-9,9)	
L2C 24>	(1,79)	(-1,18)	(-27,5)	(-23,14)	(-16,8)	(-18,9)	(-14,6)	(-37,5)	(-38,6)	(3,1)	(-13,7)	(-30,3)	(2,16)	(-24,5)	(-3,9)	(-4,2)	
L2C 25>	(-5,2)	(-20,3)	(-15,15)	(-27,3)	(1,75)	(-14,5)	(-7,3)	(-31,5)	(-18,3)	(-9,3)	(-41,3)	(-24,10)	(-19,4)	(5,21)	(-4,1)	(-17,16)	
L2C 26>	(-23,6)	(-32,1)	(-29,2)	(5,14)	(2,11)	(-25,9)	(3,6)	(1,75)	(10,6)	(-3,2)	(-20,5)	(-17,6)	(-4,4)	(-5,8)	(4,3)	(-1,5)	
L2C 27>	(1,86)	(-5,7)	(5,14)	(-3,8)	(-31,4)	(-30,5)	(-1,23)	(-25,9)	(-20,4)	(-21,5)	(-14,1)	(3,8)	(-24,5)	(-32,2)	(-23,4)	(-11,3)	
L2C 28>	(1,107)	(2,12)	(-3,1)	(-39,2)	(-24,3)	(-23,15)	(-26,4)	(-30,4)	(-1,26)	(-27,13)	(-54,4)	(-11,4)	(-32,4)	(5,4)	(-44,3)	(-18,6)	
L2C 29>	(-1,25)	(-28,8)	(3,9)	(5,7)	(1,74)	(-20,3)	(-24,4)	(4,6)	(-34,4)	(-30,2)	(-2,1)	(-16,1)	(-18,3)	(-50,1)	(-21,2)	(-27,12)	
L2C 30>	(3,5)	(1,77)	(-1,21)	(2,14)	(5,3)	(-32,6)	(-46,1)	(-4,7)	(-10,3)	(-24,2)	(-28,10)	(-5,9)	(-8,4)	(-29,16)	(11,3)	(-25,11)	
L2C 31>	(-29,7)	(-22,6)	(1,87)	(2,17)	(-1,10)	(-26,8)	(-4,1)	(-33,8)	(3,10)	(4,3)	(-5,6)	(5,10)	(-30,17)	(-35,4)	(-9,5)	(-3,4)	
L2C 32>	(-29,6)	(-35,1)	(-28,1)	(-31,6)	(11,4)	(1,77)	(-5,6)	(-4,6)	(-14,3)	(-1,21)	(-36,2)	(-32,3)	(2,6)	(5,7)	(-37,2)	(-34,3)	
L2C 33>	(2,17)	(-32,6)	(1,103)	(-33,4)	(11,29)	(-56,4)	(-34,6)	(-29,3)	(3,23)	(-31,2)	(-26,5)	(5,12)	(-4,4)	(-1,13)	(-5,3)	(-37,5)	
L2C 34>	(1,76)	(-3,2)	(5,12)	(-30,4)	(2,11)	(3,5)	(-27,4)	(-29,4)	(-31,4)	(8,5)	(-5,1)	(-1,13)	(-9,3)	(-33,6)	(-17,2)	(-23,5)	
L2C 35>	(1,73)	(2,28)	(7,2)	(-22,2)	(5,6)	(-27,2)	(-26,3)	(-1,7)	(-35,3)	(3,13)	(-6,2)	(-38,1)	(-17,20)	(-7,1)	(-4,2)	(-34,3)	
L2C 36>	(-1,11)	(1,31)	(3,1)	(-31,4)	(-36,11)	(-4,2)	(-32,2)	(-35,8)	(2,23)	(0,6)	(-2,5)	(5,14)	(-34,2)	(-26,5)	(13,1)	(7,1)	
L2C 37>	(-40,18)	(-1,5)	(-35,8)	(1,50)	(-36,5)	(3,6)	(-38,12)	(-20,5)	(-3,5)	(-28,3)	(-37,2)	(5,1)	(-45,2)	(-39,7)	(2,16)	(-41,1)	
L2C 38>	(-37,5)	(2,20)	(1,41)	(3,5)	(-33,10)	(-1,6)	(-35,1)	(-40,3)	(-26,2)	(-12,1)	(-43,2)	(-17,6)	(-4,2)	(0,2)	(-5,4)	(-47,1)	
L2C 39>	(1,40)	(17,8)	(-41,4)	(0,5)	(-4,2)	(-36,2)	(-38,6)	(2,20)	(-1,11)	(-53,2)	(-15,1)	(-26,1)	(-39,14)	(-17,1)	(-43,2)	(3,6)	
L2C 40>	(1,58)	(-44,4)	(3,10)	(0,1)	(-31,3)	(13,2)	(-6,1)	(2,26)	(-39,5)	(-1,11)	(-17,5)	(-36,3)	(-42,5)	(-50,1)	(-3,2)	(-28,2)	
L2C 41>	(2,8)	(1,63)	(-30,1)	(5,6)	(-58,1)	(-20,3)	(-3,7)	(0,17)	(3,2)	(-2,3)	(-1,15)	(-7,1)	(-23,3)	(-39,4)	(-28,3)	(-33,4)	
L2C 42>	(-38,4)	(1,47)	(2,6)	(-17,4)	(-29,3)	(-2,2)	(-1,17)	(-40,2)	(-48,4)	(-37,2)	(-44,1)	(-19,2)	(-26,3)	(-46,1)	(-33,2)	(-34,3)	
L2C 43>	(2,9)	(1,38)	(-1,15)	(-44,8)	(-38,9)	(-2,6)	(-42,8)	(-13,2)	(-41,84)	(-4,9)	(-19,2)	(-48,1)	(-34,6)	(-22,1)	(8,1)	(-27,1)	
L2C 44>	(-30,4)	(-39,2)	(1,30)	(-44,4)	(0,16)	(-3,2)	(-4,2)	(-18,2)	(-46,2)	(3,2)	(-2,8)	(-17,2)	(-33,6)	(2,12)	(-21,1)	(-43,2)	
L2C 45>	(-43,2)	(-28,4)	(-27,1)	(1,26)	(-51,1)	(-33,4)	(3,3)	(-38,3)	(-1,8)	(-44,5)	(-31,1)	(-18,1)	(-35,2)	(-26,1)	(-41,6)	(-12,1)	
L2C 46>	(1,41)	(3,8)	(2,9)	(-43,4)	(-45,5)	(-33,2)	(-25,1)	(-49,2)	(-3,1)	(-60,1)	(-48,3)	(-30,2)	(5,2)	(13,1)	(-5,2)	(-47,2)	
L2C 47>	(1,31)	(-3,4)	(3,1)	(-4,2)	(-46,7)	(10,1)	(-44,1)	(-1,2)	(-42,2)	(-41,1)	(2,4)	(-17,2)	(-28,2)	(-30,2)	(4,2)	(-38,1)	
L2C 48>	(-38,6)	(3,6)	(-43,15)	(-47,6)	(1,25)	(-33,3)	(2,10)	(-49,1)	(-37,1)	(-42,3)	(-48,3)	(-39,2)	(6,2)	(4,1)	(-30,1)	(-31,1)	
L2C 49>	(-48,13)	(1,44)	(-38,2)	(-50,4)	(-28,1)	(-53,6)	(-43,4)	(-31,1)	(-1,6)	(-44,2)	(-39,4)	(-58,1)	(-45,3)	(-52,1)	(-54,2)	(-3,1)	
L2C 50>	(1,26)	(-51,6)	(-40,1)	(-28,1)	(-36,1)	(-49,5)	(-19,2)	(-13,3)	(-48,5)	(2,12)	(-31,1)	(0,2)	(-7,1)	(5,2)	(-52,1)	(-37,2)	
L2C 51>	(1,31)	(-46,1)	(-50,6)	(-52,9)	(-40,1)	(2,6)	(-57,1)	(-43,2)	(-8,1)	(5,3)	(-60,2)	(-19,6)	(-1,2)	(-45,1)	(3,1)	(-42,1)	
L2C 52>	(-29,2)	(1,20)	(-51,3)	(-53,6)	(-4,1)	(-1,2)	(-31,1)	(-50,6)	(-19,2)	(-60,1)	(-55,1)	(-20,2)	(-7,1)	(-48,2)	(-33,1)	(-9,1)	
L2C 53>	(-52,5)	(1,13)	(2,4)	(-54,6)	(-1,3)	(-4,1)	(7,1)	(-47,1)	(-55,1)	(-20,3)	(-42,1)	(5,1)	(-34,1)	(-56,1)	(-50,1)	(-53,1)	
L2C 54>	(5,1)	(-56,2)	(1,12)	(-57,1)	(-2,4)	(-1,5)	(-11,2)	(-19,1)	(-45,2)	(-5,2)	(-53,1)	(3,1)	(2,2)	(-26,1)	(-41,1)	(-14,1)	
L2C 55>	(1,7)	(-1,5)	(-44,3)	(-57,5)	(-50,1)	(-32,1)	(0,27)	(-54,2)	(-6,2)	(-29,1)	(-45,1)	(-56,1)	(2,1)	(1,0)	(1,0)	(1,0)	
L2C 56>	(5,1)	(1,8)	(-35,1)	(-1,2)	(-44,1)	(-28,1)	(-52,1)	(-45,1)	(-4,1)	(-19,1)	(-36,1)	(-58,1)	(1,0)	(1,0)	(1,0)	(1,0)	
L2C 57>	(-46,1)	(-45,1)	(1,7)	(-57,1)	(-39,1)	(-1,1)	(-30,1)	(1,0)	(1,0)	(1,0)	(1,0)	(1,0)	(1,0)	(1,0)	(1,0)	(1,0)	
L2C 58>	(1,4)	(-1,2)	(-25,1)	(-57,1)	(-10,1)	(-63,1)	(3,1)	(-46,1)	(-26,1)	(1,0)	(1,0)	(1,0)	(1,0)	(1,0)	(1,0)	(1,0)	
L2C 59>	(1,3)	(-3,1)	(-8,1)	(-1,2)	(-46,1)	(-56,1)	(-12,1)	(1,0)	(1,0)	(1,0)	(1,0)	(1,0)	(1,0)	(1,0)	(1,0)	(1,0)	
L2C 60>	(1,1)	(-1,1)	(-50,1)	(-7,1)	(-16,1)	(1,0)	(1,0)	(1,0)	(1,0)	(1,0)	(1,0)	(1,0)	(1,0)	(1,0)	(1,0)	(1,0)	
L2C 61>	(-60,1)	(-31,1)	(-12,1)	(-1,1)	(1,0)	(1,0)	(1,0)	(1,0)	(1,0)	(1,0)	(1,0)	(1,0)	(1,0)	(1,0)	(1,0)	(1,0)	
L2C 62>	(-29,1)	(-58,1)	(1,0)	(1,0)	(1,0)	(1,0)	(1,0)	(1,0)	(1,0)	(1,0)	(1,0)	(1,0)	(1,0)	(1,0)	(1,0)	(1,0)	
L2C 63>	(-6,1)	(1,0)	(1,0)	(1,0)	(1,0)	(1,0)	(1,0)	(1,0)	(1,0)	(1,0)	(1,0)	(1,0)	(1,0)	(1,0)	(1,0)	(1,0)	

DRAM Statistics
 CHANNEL 0
 RQ ROW_BUFFER_HIT:     151401  ROW_BUFFER_MISS:     516608
 DBUS_CONGESTED:     613854
 WQ ROW_BUFFER_HIT:      47220  ROW_BUFFER_MISS:     277415  FULL:          0

 AVG_CONGESTED_CYCLE: 6
