
*** ChampSim Multicore Out-of-Order Simulator ***

Warmup Instructions: 1000000
Simulation Instructions: 10000000
Number of CPUs: 4
LLC sets: 8192
LLC ways: 16
Off-chip DRAM Size: 4096 MB Channels: 1 Width: 64-bit Data Rate: 3200 MT/s

CPU 0 runs /home/virtualcse/Data-Prefetching/ChampSim/dpc3_traces/600.perlbench_s-1273B.champsimtrace.xz
CPU 1 runs /home/virtualcse/Data-Prefetching/ChampSim/dpc3_traces/619.lbm_s-2676B.champsimtrace.xz
CPU 2 runs /home/virtualcse/Data-Prefetching/ChampSim/dpc3_traces/602.gcc_s-1850B.champsimtrace.xz
CPU 3 runs /home/virtualcse/Data-Prefetching/ChampSim/dpc3_traces/607.cactuBSSN_s-2421B.champsimtrace.xz
Ultra pref. initializing...
Ultra pref. initialized
Ultra pref. initializing...
Ultra pref. initialized
Ultra pref. initializing...
Ultra pref. initialized
Ultra pref. initializing...
Ultra pref. initialized
Ultra pref. initializing...
Ultra pref. initialized
Ultra pref. initializing...
Ultra pref. initialized
Ultra pref. initializing...
Ultra pref. initialized
Ultra pref. initializing...
Ultra pref. initialized

Warmup complete CPU 0 instructions: 1246789 cycles: 481531 (Simulation time: 0 hr 0 min 10 sec) 
Warmup complete CPU 1 instructions: 1415103 cycles: 481531 (Simulation time: 0 hr 0 min 10 sec) 
Warmup complete CPU 2 instructions: 1127818 cycles: 481531 (Simulation time: 0 hr 0 min 10 sec) 
Warmup complete CPU 3 instructions: 1000003 cycles: 481531 (Simulation time: 0 hr 0 min 10 sec) 

Heartbeat CPU 0 instructions: 10000000 cycles: 5814094 heartbeat IPC: 1.71996 cumulative IPC: 1.64146 (Simulation time: 0 hr 0 min 49 sec) 
Finished CPU 0 instructions: 10000000 cycles: 6098119 cumulative IPC: 1.63985 (Simulation time: 0 hr 0 min 54 sec) 
Heartbeat CPU 3 instructions: 10000001 cycles: 8661093 heartbeat IPC: 1.15459 cumulative IPC: 1.1003 (Simulation time: 0 hr 1 min 9 sec) 
Finished CPU 3 instructions: 10000000 cycles: 9221570 cumulative IPC: 1.08441 (Simulation time: 0 hr 1 min 15 sec) 
Heartbeat CPU 0 instructions: 20000000 cycles: 12339392 heartbeat IPC: 1.5325 cumulative IPC: 1.5815 (Simulation time: 0 hr 1 min 33 sec) 
Heartbeat CPU 0 instructions: 30000002 cycles: 17372827 heartbeat IPC: 1.98672 cumulative IPC: 1.70225 (Simulation time: 0 hr 2 min 11 sec) 
Heartbeat CPU 3 instructions: 20000000 cycles: 17967908 heartbeat IPC: 1.07448 cumulative IPC: 1.08656 (Simulation time: 0 hr 2 min 16 sec) 
Heartbeat CPU 1 instructions: 10000002 cycles: 19770185 heartbeat IPC: 0.505812 cumulative IPC: 0.445075 (Simulation time: 0 hr 2 min 29 sec) 
Finished CPU 1 instructions: 10000000 cycles: 22718850 cumulative IPC: 0.440163 (Simulation time: 0 hr 2 min 51 sec) 
Heartbeat CPU 0 instructions: 40000002 cycles: 23570858 heartbeat IPC: 1.61342 cumulative IPC: 1.6784 (Simulation time: 0 hr 2 min 54 sec) 
Heartbeat CPU 3 instructions: 30000001 cycles: 27195778 heartbeat IPC: 1.08367 cumulative IPC: 1.08556 (Simulation time: 0 hr 3 min 18 sec) 
Heartbeat CPU 0 instructions: 50000001 cycles: 29713561 heartbeat IPC: 1.62795 cumulative IPC: 1.6678 (Simulation time: 0 hr 3 min 36 sec) 
Heartbeat CPU 2 instructions: 10000000 cycles: 30403481 heartbeat IPC: 0.32891 cumulative IPC: 0.296511 (Simulation time: 0 hr 3 min 42 sec) 
Finished CPU 2 instructions: 10000000 cycles: 33671995 cumulative IPC: 0.296983 (Simulation time: 0 hr 4 min 11 sec) 

CPU 0 Branch Prediction Accuracy: 98.6961% MPKI: 1.60774 Average ROB Occupancy at Mispredict: 99.1078

CPU 1 Branch Prediction Accuracy: 97.3174% MPKI: 0.455979 Average ROB Occupancy at Mispredict: 314.924

CPU 2 Branch Prediction Accuracy: 96.3022% MPKI: 8.57174 Average ROB Occupancy at Mispredict: 51.3594

CPU 3 Branch Prediction Accuracy: 99.8644% MPKI: 0.00918805 Average ROB Occupancy at Mispredict: 17.753

ChampSim completed all CPUs

Total Simulation Statistics (not including warmup)

CPU 0 cumulative IPC: 1.6889 instructions: 56868792 cycles: 33671995
L1D TOTAL     ACCESS:   28595857  HIT:   28589541  MISS:       6316
L1D LOAD      ACCESS:    8217061  HIT:    8214662  MISS:       2399
L1D RFO       ACCESS:   12434492  HIT:   12434385  MISS:        107
L1D PREFETCH  ACCESS:    7944304  HIT:    7940494  MISS:       3810
L1D WRITEBACK ACCESS:          0  HIT:          0  MISS:          0
L1I TOTAL     ACCESS:    6641040  HIT:    6639474  MISS:       1566
L1I LOAD      ACCESS:    6641040  HIT:    6639474  MISS:       1566
L1I RFO       ACCESS:          0  HIT:          0  MISS:          0
L1I PREFETCH  ACCESS:          0  HIT:          0  MISS:          0
L1I WRITEBACK ACCESS:          0  HIT:          0  MISS:          0
L2C TOTAL     ACCESS:      20449  HIT:      13044  MISS:       7405
L2C LOAD      ACCESS:       3904  HIT:       2269  MISS:       1635
L2C RFO       ACCESS:        107  HIT:         28  MISS:         79
L2C PREFETCH  ACCESS:      16081  HIT:      10392  MISS:       5689
L2C WRITEBACK ACCESS:        357  HIT:        355  MISS:          2

L1D -512>	(-2,16)	(-8,5)	(-1,26)	(2,6)	(1,77)	(5,76)	(-17,22)	(0,44)	(-13,26)	(10,30)	(20,17)	(3,23)	(18,1)	(-9,29)	(-5,18)	(-12,2)	
L1D -511>	(0,1)	(3,18)	(1,0)	(1,0)	(1,0)	(1,0)	(1,0)	(1,0)	(1,0)	(1,0)	(1,0)	(1,0)	(1,0)	(1,0)	(1,0)	(1,0)	
L1D -510>	(1,0)	(1,0)	(1,0)	(1,0)	(1,0)	(1,0)	(1,0)	(1,0)	(1,0)	(1,0)	(1,0)	(1,0)	(1,0)	(1,0)	(1,0)	(1,0)	
L1D -509>	(10,1)	(5,1)	(1,0)	(1,0)	(1,0)	(1,0)	(1,0)	(1,0)	(1,0)	(1,0)	(1,0)	(1,0)	(1,0)	(1,0)	(1,0)	(1,0)	
L1D -508>	(5,42)	(-1,1)	(0,33)	(-2,7)	(2,3)	(1,0)	(1,0)	(1,0)	(1,0)	(1,0)	(1,0)	(1,0)	(1,0)	(1,0)	(1,0)	(1,0)	
L1D -507>	(0,1)	(1,3)	(4,1)	(1,0)	(1,0)	(1,0)	(1,0)	(1,0)	(1,0)	(1,0)	(1,0)	(1,0)	(1,0)	(1,0)	(1,0)	(1,0)	
L1D -506>	(0,4)	(5,1)	(3,15)	(1,0)	(1,0)	(1,0)	(1,0)	(1,0)	(1,0)	(1,0)	(1,0)	(1,0)	(1,0)	(1,0)	(1,0)	(1,0)	
L1D -505>	(-5,1)	(5,1)	(1,0)	(1,0)	(1,0)	(1,0)	(1,0)	(1,0)	(1,0)	(1,0)	(1,0)	(1,0)	(1,0)	(1,0)	(1,0)	(1,0)	
L1D -504>	(-5,1)	(1,0)	(1,0)	(1,0)	(1,0)	(1,0)	(1,0)	(1,0)	(1,0)	(1,0)	(1,0)	(1,0)	(1,0)	(1,0)	(1,0)	(1,0)	
L1D -503>	(0,2)	(5,5)	(-2,2)	(1,0)	(1,0)	(1,0)	(1,0)	(1,0)	(1,0)	(1,0)	(1,0)	(1,0)	(1,0)	(1,0)	(1,0)	(1,0)	
L1D -502>	(-9,1)	(1,0)	(1,0)	(1,0)	(1,0)	(1,0)	(1,0)	(1,0)	(1,0)	(1,0)	(1,0)	(1,0)	(1,0)	(1,0)	(1,0)	(1,0)	
L1D -501>	(1,0)	(1,0)	(1,0)	(1,0)	(1,0)	(1,0)	(1,0)	(1,0)	(1,0)	(1,0)	(1,0)	(1,0)	(1,0)	(1,0)	(1,0)	(1,0)	
L1D -500>	(-9,1)	(1,0)	(1,0)	(1,0)	(1,0)	(1,0)	(1,0)	(1,0)	(1,0)	(1,0)	(1,0)	(1,0)	(1,0)	(1,0)	(1,0)	(1,0)	
L1D -499>	(1,0)	(1,0)	(1,0)	(1,0)	(1,0)	(1,0)	(1,0)	(1,0)	(1,0)	(1,0)	(1,0)	(1,0)	(1,0)	(1,0)	(1,0)	(1,0)	
L1D -498>	(2,1)	(1,0)	(1,0)	(1,0)	(1,0)	(1,0)	(1,0)	(1,0)	(1,0)	(1,0)	(1,0)	(1,0)	(1,0)	(1,0)	(1,0)	(1,0)	
L1D -497>	(-13,1)	(1,0)	(1,0)	(1,0)	(1,0)	(1,0)	(1,0)	(1,0)	(1,0)	(1,0)	(1,0)	(1,0)	(1,0)	(1,0)	(1,0)	(1,0)	
L1D -496>	(3,1)	(1,0)	(1,0)	(1,0)	(1,0)	(1,0)	(1,0)	(1,0)	(1,0)	(1,0)	(1,0)	(1,0)	(1,0)	(1,0)	(1,0)	(1,0)	
L1D -495>	(1,0)	(1,0)	(1,0)	(1,0)	(1,0)	(1,0)	(1,0)	(1,0)	(1,0)	(1,0)	(1,0)	(1,0)	(1,0)	(1,0)	(1,0)	(1,0)	
L1D -494>	(-17,1)	(1,0)	(1,0)	(1,0)	(1,0)	(1,0)	(1,0)	(1,0)	(1,0)	(1,0)	(1,0)	(1,0)	(1,0)	(1,0)	(1,0)	(1,0)	
L1D -493>	(1,0)	(1,0)	(1,0)	(1,0)	(1,0)	(1,0)	(1,0)	(1,0)	(1,0)	(1,0)	(1,0)	(1,0)	(1,0)	(1,0)	(1,0)	(1,0)	
L1D -492>	(1,0)	(1,0)	(1,0)	(1,0)	(1,0)	(1,0)	(1,0)	(1,0)	(1,0)	(1,0)	(1,0)	(1,0)	(1,0)	(1,0)	(1,0)	(1,0)	
L1D -491>	(-17,1)	(1,0)	(1,0)	(1,0)	(1,0)	(1,0)	(1,0)	(1,0)	(1,0)	(1,0)	(1,0)	(1,0)	(1,0)	(1,0)	(1,0)	(1,0)	
L1D -490>	(1,0)	(1,0)	(1,0)	(1,0)	(1,0)	(1,0)	(1,0)	(1,0)	(1,0)	(1,0)	(1,0)	(1,0)	(1,0)	(1,0)	(1,0)	(1,0)	
L1D -489>	(1,0)	(1,0)	(1,0)	(1,0)	(1,0)	(1,0)	(1,0)	(1,0)	(1,0)	(1,0)	(1,0)	(1,0)	(1,0)	(1,0)	(1,0)	(1,0)	
L1D -488>	(5,2)	(1,0)	(1,0)	(1,0)	(1,0)	(1,0)	(1,0)	(1,0)	(1,0)	(1,0)	(1,0)	(1,0)	(1,0)	(1,0)	(1,0)	(1,0)	
L1D -487>	(1,0)	(1,0)	(1,0)	(1,0)	(1,0)	(1,0)	(1,0)	(1,0)	(1,0)	(1,0)	(1,0)	(1,0)	(1,0)	(1,0)	(1,0)	(1,0)	
L1D -486>	(1,0)	(1,0)	(1,0)	(1,0)	(1,0)	(1,0)	(1,0)	(1,0)	(1,0)	(1,0)	(1,0)	(1,0)	(1,0)	(1,0)	(1,0)	(1,0)	
L1D -485>	(1,0)	(1,0)	(1,0)	(1,0)	(1,0)	(1,0)	(1,0)	(1,0)	(1,0)	(1,0)	(1,0)	(1,0)	(1,0)	(1,0)	(1,0)	(1,0)	
L1D -484>	(1,0)	(1,0)	(1,0)	(1,0)	(1,0)	(1,0)	(1,0)	(1,0)	(1,0)	(1,0)	(1,0)	(1,0)	(1,0)	(1,0)	(1,0)	(1,0)	
L1D -483>	(1,0)	(1,0)	(1,0)	(1,0)	(1,0)	(1,0)	(1,0)	(1,0)	(1,0)	(1,0)	(1,0)	(1,0)	(1,0)	(1,0)	(1,0)	(1,0)	
L1D -482>	(1,0)	(1,0)	(1,0)	(1,0)	(1,0)	(1,0)	(1,0)	(1,0)	(1,0)	(1,0)	(1,0)	(1,0)	(1,0)	(1,0)	(1,0)	(1,0)	
L1D -481>	(1,0)	(1,0)	(1,0)	(1,0)	(1,0)	(1,0)	(1,0)	(1,0)	(1,0)	(1,0)	(1,0)	(1,0)	(1,0)	(1,0)	(1,0)	(1,0)	
L1D -480>	(1,0)	(1,0)	(1,0)	(1,0)	(1,0)	(1,0)	(1,0)	(1,0)	(1,0)	(1,0)	(1,0)	(1,0)	(1,0)	(1,0)	(1,0)	(1,0)	
L1D -479>	(1,0)	(1,0)	(1,0)	(1,0)	(1,0)	(1,0)	(1,0)	(1,0)	(1,0)	(1,0)	(1,0)	(1,0)	(1,0)	(1,0)	(1,0)	(1,0)	
L1D -478>	(1,0)	(1,0)	(1,0)	(1,0)	(1,0)	(1,0)	(1,0)	(1,0)	(1,0)	(1,0)	(1,0)	(1,0)	(1,0)	(1,0)	(1,0)	(1,0)	
L1D -477>	(1,0)	(1,0)	(1,0)	(1,0)	(1,0)	(1,0)	(1,0)	(1,0)	(1,0)	(1,0)	(1,0)	(1,0)	(1,0)	(1,0)	(1,0)	(1,0)	
L1D -476>	(1,0)	(1,0)	(1,0)	(1,0)	(1,0)	(1,0)	(1,0)	(1,0)	(1,0)	(1,0)	(1,0)	(1,0)	(1,0)	(1,0)	(1,0)	(1,0)	
L1D -475>	(1,0)	(1,0)	(1,0)	(1,0)	(1,0)	(1,0)	(1,0)	(1,0)	(1,0)	(1,0)	(1,0)	(1,0)	(1,0)	(1,0)	(1,0)	(1,0)	
L1D -474>	(1,0)	(1,0)	(1,0)	(1,0)	(1,0)	(1,0)	(1,0)	(1,0)	(1,0)	(1,0)	(1,0)	(1,0)	(1,0)	(1,0)	(1,0)	(1,0)	
L1D -473>	(1,0)	(1,0)	(1,0)	(1,0)	(1,0)	(1,0)	(1,0)	(1,0)	(1,0)	(1,0)	(1,0)	(1,0)	(1,0)	(1,0)	(1,0)	(1,0)	
L1D -472>	(1,0)	(1,0)	(1,0)	(1,0)	(1,0)	(1,0)	(1,0)	(1,0)	(1,0)	(1,0)	(1,0)	(1,0)	(1,0)	(1,0)	(1,0)	(1,0)	
L1D -471>	(1,0)	(1,0)	(1,0)	(1,0)	(1,0)	(1,0)	(1,0)	(1,0)	(1,0)	(1,0)	(1,0)	(1,0)	(1,0)	(1,0)	(1,0)	(1,0)	
L1D -470>	(1,0)	(1,0)	(1,0)	(1,0)	(1,0)	(1,0)	(1,0)	(1,0)	(1,0)	(1,0)	(1,0)	(1,0)	(1,0)	(1,0)	(1,0)	(1,0)	
L1D -469>	(1,0)	(1,0)	(1,0)	(1,0)	(1,0)	(1,0)	(1,0)	(1,0)	(1,0)	(1,0)	(1,0)	(1,0)	(1,0)	(1,0)	(1,0)	(1,0)	
L1D -468>	(1,0)	(1,0)	(1,0)	(1,0)	(1,0)	(1,0)	(1,0)	(1,0)	(1,0)	(1,0)	(1,0)	(1,0)	(1,0)	(1,0)	(1,0)	(1,0)	
L1D -467>	(1,0)	(1,0)	(1,0)	(1,0)	(1,0)	(1,0)	(1,0)	(1,0)	(1,0)	(1,0)	(1,0)	(1,0)	(1,0)	(1,0)	(1,0)	(1,0)	
L1D -466>	(1,0)	(1,0)	(1,0)	(1,0)	(1,0)	(1,0)	(1,0)	(1,0)	(1,0)	(1,0)	(1,0)	(1,0)	(1,0)	(1,0)	(1,0)	(1,0)	
L1D -465>	(1,0)	(1,0)	(1,0)	(1,0)	(1,0)	(1,0)	(1,0)	(1,0)	(1,0)	(1,0)	(1,0)	(1,0)	(1,0)	(1,0)	(1,0)	(1,0)	
L1D -464>	(1,0)	(1,0)	(1,0)	(1,0)	(1,0)	(1,0)	(1,0)	(1,0)	(1,0)	(1,0)	(1,0)	(1,0)	(1,0)	(1,0)	(1,0)	(1,0)	
L1D -463>	(1,0)	(1,0)	(1,0)	(1,0)	(1,0)	(1,0)	(1,0)	(1,0)	(1,0)	(1,0)	(1,0)	(1,0)	(1,0)	(1,0)	(1,0)	(1,0)	
L1D -462>	(1,0)	(1,0)	(1,0)	(1,0)	(1,0)	(1,0)	(1,0)	(1,0)	(1,0)	(1,0)	(1,0)	(1,0)	(1,0)	(1,0)	(1,0)	(1,0)	
L1D -461>	(3,1)	(1,0)	(1,0)	(1,0)	(1,0)	(1,0)	(1,0)	(1,0)	(1,0)	(1,0)	(1,0)	(1,0)	(1,0)	(1,0)	(1,0)	(1,0)	
L1D -460>	(1,0)	(1,0)	(1,0)	(1,0)	(1,0)	(1,0)	(1,0)	(1,0)	(1,0)	(1,0)	(1,0)	(1,0)	(1,0)	(1,0)	(1,0)	(1,0)	
L1D -459>	(4,1)	(1,0)	(1,0)	(1,0)	(1,0)	(1,0)	(1,0)	(1,0)	(1,0)	(1,0)	(1,0)	(1,0)	(1,0)	(1,0)	(1,0)	(1,0)	
L1D -458>	(450,1)	(331,1)	(-3,4)	(1,0)	(1,0)	(1,0)	(1,0)	(1,0)	(1,0)	(1,0)	(1,0)	(1,0)	(1,0)	(1,0)	(1,0)	(1,0)	
L1D -457>	(1,0)	(1,0)	(1,0)	(1,0)	(1,0)	(1,0)	(1,0)	(1,0)	(1,0)	(1,0)	(1,0)	(1,0)	(1,0)	(1,0)	(1,0)	(1,0)	
L1D -456>	(1,0)	(1,0)	(1,0)	(1,0)	(1,0)	(1,0)	(1,0)	(1,0)	(1,0)	(1,0)	(1,0)	(1,0)	(1,0)	(1,0)	(1,0)	(1,0)	
L1D -455>	(1,0)	(1,0)	(1,0)	(1,0)	(1,0)	(1,0)	(1,0)	(1,0)	(1,0)	(1,0)	(1,0)	(1,0)	(1,0)	(1,0)	(1,0)	(1,0)	
L1D -454>	(327,3)	(1,0)	(1,0)	(1,0)	(1,0)	(1,0)	(1,0)	(1,0)	(1,0)	(1,0)	(1,0)	(1,0)	(1,0)	(1,0)	(1,0)	(1,0)	
L1D -453>	(1,0)	(1,0)	(1,0)	(1,0)	(1,0)	(1,0)	(1,0)	(1,0)	(1,0)	(1,0)	(1,0)	(1,0)	(1,0)	(1,0)	(1,0)	(1,0)	
L1D -452>	(1,0)	(1,0)	(1,0)	(1,0)	(1,0)	(1,0)	(1,0)	(1,0)	(1,0)	(1,0)	(1,0)	(1,0)	(1,0)	(1,0)	(1,0)	(1,0)	
L1D -451>	(1,0)	(1,0)	(1,0)	(1,0)	(1,0)	(1,0)	(1,0)	(1,0)	(1,0)	(1,0)	(1,0)	(1,0)	(1,0)	(1,0)	(1,0)	(1,0)	
L1D -450>	(1,0)	(1,0)	(1,0)	(1,0)	(1,0)	(1,0)	(1,0)	(1,0)	(1,0)	(1,0)	(1,0)	(1,0)	(1,0)	(1,0)	(1,0)	(1,0)	
L1D -449>	(1,0)	(1,0)	(1,0)	(1,0)	(1,0)	(1,0)	(1,0)	(1,0)	(1,0)	(1,0)	(1,0)	(1,0)	(1,0)	(1,0)	(1,0)	(1,0)	
L1D -448>	(1,0)	(1,0)	(1,0)	(1,0)	(1,0)	(1,0)	(1,0)	(1,0)	(1,0)	(1,0)	(1,0)	(1,0)	(1,0)	(1,0)	(1,0)	(1,0)	
L1D -447>	(5,1)	(1,0)	(1,0)	(1,0)	(1,0)	(1,0)	(1,0)	(1,0)	(1,0)	(1,0)	(1,0)	(1,0)	(1,0)	(1,0)	(1,0)	(1,0)	
L1D -446>	(449,1)	(1,0)	(1,0)	(1,0)	(1,0)	(1,0)	(1,0)	(1,0)	(1,0)	(1,0)	(1,0)	(1,0)	(1,0)	(1,0)	(1,0)	(1,0)	
L1D -445>	(1,0)	(1,0)	(1,0)	(1,0)	(1,0)	(1,0)	(1,0)	(1,0)	(1,0)	(1,0)	(1,0)	(1,0)	(1,0)	(1,0)	(1,0)	(1,0)	
L1D -444>	(1,1)	(1,0)	(1,0)	(1,0)	(1,0)	(1,0)	(1,0)	(1,0)	(1,0)	(1,0)	(1,0)	(1,0)	(1,0)	(1,0)	(1,0)	(1,0)	
L1D -443>	(217,1)	(1,0)	(1,0)	(1,0)	(1,0)	(1,0)	(1,0)	(1,0)	(1,0)	(1,0)	(1,0)	(1,0)	(1,0)	(1,0)	(1,0)	(1,0)	
L1D -442>	(-1,1)	(-8,3)	(216,1)	(1,0)	(1,0)	(1,0)	(1,0)	(1,0)	(1,0)	(1,0)	(1,0)	(1,0)	(1,0)	(1,0)	(1,0)	(1,0)	
L1D -441>	(0,1)	(-1,1)	(-2,1)	(1,0)	(1,0)	(1,0)	(1,0)	(1,0)	(1,0)	(1,0)	(1,0)	(1,0)	(1,0)	(1,0)	(1,0)	(1,0)	
L1D -440>	(-8,3)	(1,0)	(1,0)	(1,0)	(1,0)	(1,0)	(1,0)	(1,0)	(1,0)	(1,0)	(1,0)	(1,0)	(1,0)	(1,0)	(1,0)	(1,0)	
L1D -439>	(1,0)	(1,0)	(1,0)	(1,0)	(1,0)	(1,0)	(1,0)	(1,0)	(1,0)	(1,0)	(1,0)	(1,0)	(1,0)	(1,0)	(1,0)	(1,0)	
L1D -438>	(1,0)	(1,0)	(1,0)	(1,0)	(1,0)	(1,0)	(1,0)	(1,0)	(1,0)	(1,0)	(1,0)	(1,0)	(1,0)	(1,0)	(1,0)	(1,0)	
L1D -437>	(-2,1)	(345,6)	(1,0)	(1,0)	(1,0)	(1,0)	(1,0)	(1,0)	(1,0)	(1,0)	(1,0)	(1,0)	(1,0)	(1,0)	(1,0)	(1,0)	
L1D -436>	(436,1)	(437,1)	(1,0)	(1,0)	(1,0)	(1,0)	(1,0)	(1,0)	(1,0)	(1,0)	(1,0)	(1,0)	(1,0)	(1,0)	(1,0)	(1,0)	
L1D -435>	(-1,2)	(1,0)	(1,0)	(1,0)	(1,0)	(1,0)	(1,0)	(1,0)	(1,0)	(1,0)	(1,0)	(1,0)	(1,0)	(1,0)	(1,0)	(1,0)	
L1D -434>	(1,6)	(1,0)	(1,0)	(1,0)	(1,0)	(1,0)	(1,0)	(1,0)	(1,0)	(1,0)	(1,0)	(1,0)	(1,0)	(1,0)	(1,0)	(1,0)	
L1D -433>	(1,7)	(5,1)	(1,0)	(1,0)	(1,0)	(1,0)	(1,0)	(1,0)	(1,0)	(1,0)	(1,0)	(1,0)	(1,0)	(1,0)	(1,0)	(1,0)	
L1D -432>	(1,0)	(1,0)	(1,0)	(1,0)	(1,0)	(1,0)	(1,0)	(1,0)	(1,0)	(1,0)	(1,0)	(1,0)	(1,0)	(1,0)	(1,0)	(1,0)	
L1D -431>	(5,1)	(1,0)	(1,0)	(1,0)	(1,0)	(1,0)	(1,0)	(1,0)	(1,0)	(1,0)	(1,0)	(1,0)	(1,0)	(1,0)	(1,0)	(1,0)	
L1D -430>	(1,0)	(1,0)	(1,0)	(1,0)	(1,0)	(1,0)	(1,0)	(1,0)	(1,0)	(1,0)	(1,0)	(1,0)	(1,0)	(1,0)	(1,0)	(1,0)	
L1D -429>	(1,0)	(1,0)	(1,0)	(1,0)	(1,0)	(1,0)	(1,0)	(1,0)	(1,0)	(1,0)	(1,0)	(1,0)	(1,0)	(1,0)	(1,0)	(1,0)	
L1D -428>	(2,68)	(0,6)	(-2,1)	(-1,1)	(471,5)	(1,1)	(1,0)	(1,0)	(1,0)	(1,0)	(1,0)	(1,0)	(1,0)	(1,0)	(1,0)	(1,0)	
L1D -427>	(1,38)	(-1,9)	(-9,1)	(1,0)	(1,0)	(1,0)	(1,0)	(1,0)	(1,0)	(1,0)	(1,0)	(1,0)	(1,0)	(1,0)	(1,0)	(1,0)	
L1D -426>	(-1,83)	(1,44)	(1,0)	(1,0)	(1,0)	(1,0)	(1,0)	(1,0)	(1,0)	(1,0)	(1,0)	(1,0)	(1,0)	(1,0)	(1,0)	(1,0)	
L1D -425>	(-1,85)	(1,0)	(1,0)	(1,0)	(1,0)	(1,0)	(1,0)	(1,0)	(1,0)	(1,0)	(1,0)	(1,0)	(1,0)	(1,0)	(1,0)	(1,0)	
L1D -424>	(1,3)	(-1,2)	(1,0)	(1,0)	(1,0)	(1,0)	(1,0)	(1,0)	(1,0)	(1,0)	(1,0)	(1,0)	(1,0)	(1,0)	(1,0)	(1,0)	
L1D -423>	(215,30)	(0,1)	(213,1)	(-1,3)	(1,2)	(1,0)	(1,0)	(1,0)	(1,0)	(1,0)	(1,0)	(1,0)	(1,0)	(1,0)	(1,0)	(1,0)	
L1D -422>	(1,4)	(-1,40)	(215,58)	(213,15)	(214,91)	(212,1)	(222,2)	(216,1)	(1,0)	(1,0)	(1,0)	(1,0)	(1,0)	(1,0)	(1,0)	(1,0)	
L1D -421>	(-1,112)	(213,6)	(214,13)	(1,0)	(1,0)	(1,0)	(1,0)	(1,0)	(1,0)	(1,0)	(1,0)	(1,0)	(1,0)	(1,0)	(1,0)	(1,0)	
L1D -420>	(215,1)	(1,1)	(214,1)	(1,0)	(1,0)	(1,0)	(1,0)	(1,0)	(1,0)	(1,0)	(1,0)	(1,0)	(1,0)	(1,0)	(1,0)	(1,0)	
L1D -419>	(-5,1)	(213,1)	(1,0)	(1,0)	(1,0)	(1,0)	(1,0)	(1,0)	(1,0)	(1,0)	(1,0)	(1,0)	(1,0)	(1,0)	(1,0)	(1,0)	
L1D -418>	(3,108)	(4,0)	(5,3)	(1,0)	(1,0)	(1,0)	(1,0)	(1,0)	(1,0)	(1,0)	(1,0)	(1,0)	(1,0)	(1,0)	(1,0)	(1,0)	
L1D -417>	(425,1)	(1,0)	(1,0)	(1,0)	(1,0)	(1,0)	(1,0)	(1,0)	(1,0)	(1,0)	(1,0)	(1,0)	(1,0)	(1,0)	(1,0)	(1,0)	
L1D -416>	(3,1)	(1,0)	(1,0)	(1,0)	(1,0)	(1,0)	(1,0)	(1,0)	(1,0)	(1,0)	(1,0)	(1,0)	(1,0)	(1,0)	(1,0)	(1,0)	
L1D -415>	(1,88)	(-3,2)	(-1,0)	(1,0)	(1,0)	(1,0)	(1,0)	(1,0)	(1,0)	(1,0)	(1,0)	(1,0)	(1,0)	(1,0)	(1,0)	(1,0)	
L1D -414>	(1,70)	(-1,0)	(1,0)	(1,0)	(1,0)	(1,0)	(1,0)	(1,0)	(1,0)	(1,0)	(1,0)	(1,0)	(1,0)	(1,0)	(1,0)	(1,0)	
L1D -413>	(1,90)	(-1,0)	(-5,0)	(1,0)	(1,0)	(1,0)	(1,0)	(1,0)	(1,0)	(1,0)	(1,0)	(1,0)	(1,0)	(1,0)	(1,0)	(1,0)	
L1D -412>	(-1,3)	(1,1)	(47,1)	(2,1)	(1,0)	(1,0)	(1,0)	(1,0)	(1,0)	(1,0)	(1,0)	(1,0)	(1,0)	(1,0)	(1,0)	(1,0)	
L1D -411>	(-1,4)	(1,0)	(1,0)	(1,0)	(1,0)	(1,0)	(1,0)	(1,0)	(1,0)	(1,0)	(1,0)	(1,0)	(1,0)	(1,0)	(1,0)	(1,0)	
L1D -410>	(1,0)	(1,0)	(1,0)	(1,0)	(1,0)	(1,0)	(1,0)	(1,0)	(1,0)	(1,0)	(1,0)	(1,0)	(1,0)	(1,0)	(1,0)	(1,0)	
L1D -409>	(1,0)	(1,0)	(1,0)	(1,0)	(1,0)	(1,0)	(1,0)	(1,0)	(1,0)	(1,0)	(1,0)	(1,0)	(1,0)	(1,0)	(1,0)	(1,0)	
L1D -408>	(1,0)	(1,0)	(1,0)	(1,0)	(1,0)	(1,0)	(1,0)	(1,0)	(1,0)	(1,0)	(1,0)	(1,0)	(1,0)	(1,0)	(1,0)	(1,0)	
L1D -407>	(1,0)	(1,0)	(1,0)	(1,0)	(1,0)	(1,0)	(1,0)	(1,0)	(1,0)	(1,0)	(1,0)	(1,0)	(1,0)	(1,0)	(1,0)	(1,0)	
L1D -406>	(458,1)	(1,0)	(1,0)	(1,0)	(1,0)	(1,0)	(1,0)	(1,0)	(1,0)	(1,0)	(1,0)	(1,0)	(1,0)	(1,0)	(1,0)	(1,0)	
L1D -405>	(165,7)	(181,1)	(91,2)	(365,2)	(345,6)	(85,1)	(1,0)	(1,0)	(1,0)	(1,0)	(1,0)	(1,0)	(1,0)	(1,0)	(1,0)	(1,0)	
L1D -404>	(1,0)	(1,0)	(1,0)	(1,0)	(1,0)	(1,0)	(1,0)	(1,0)	(1,0)	(1,0)	(1,0)	(1,0)	(1,0)	(1,0)	(1,0)	(1,0)	
L1D -403>	(363,1)	(1,0)	(1,0)	(1,0)	(1,0)	(1,0)	(1,0)	(1,0)	(1,0)	(1,0)	(1,0)	(1,0)	(1,0)	(1,0)	(1,0)	(1,0)	
L1D -402>	(0,1)	(400,1)	(388,47)	(-42,6)	(1,0)	(1,0)	(1,0)	(1,0)	(1,0)	(1,0)	(1,0)	(1,0)	(1,0)	(1,0)	(1,0)	(1,0)	
L1D -401>	(389,1)	(1,0)	(1,0)	(1,0)	(1,0)	(1,0)	(1,0)	(1,0)	(1,0)	(1,0)	(1,0)	(1,0)	(1,0)	(1,0)	(1,0)	(1,0)	
L1D -400>	(0,1)	(134,1)	(388,1)	(1,0)	(1,0)	(1,0)	(1,0)	(1,0)	(1,0)	(1,0)	(1,0)	(1,0)	(1,0)	(1,0)	(1,0)	(1,0)	
L1D -399>	(365,2)	(1,0)	(1,0)	(1,0)	(1,0)	(1,0)	(1,0)	(1,0)	(1,0)	(1,0)	(1,0)	(1,0)	(1,0)	(1,0)	(1,0)	(1,0)	
L1D -398>	(0,2)	(-38,1)	(1,0)	(1,0)	(1,0)	(1,0)	(1,0)	(1,0)	(1,0)	(1,0)	(1,0)	(1,0)	(1,0)	(1,0)	(1,0)	(1,0)	
L1D -397>	(9,2)	(1,0)	(1,0)	(1,0)	(1,0)	(1,0)	(1,0)	(1,0)	(1,0)	(1,0)	(1,0)	(1,0)	(1,0)	(1,0)	(1,0)	(1,0)	
L1D -396>	(0,3)	(148,2)	(388,2)	(1,0)	(1,0)	(1,0)	(1,0)	(1,0)	(1,0)	(1,0)	(1,0)	(1,0)	(1,0)	(1,0)	(1,0)	(1,0)	
L1D -395>	(397,33)	(9,5)	(24,2)	(3,2)	(1,0)	(1,0)	(1,0)	(1,0)	(1,0)	(1,0)	(1,0)	(1,0)	(1,0)	(1,0)	(1,0)	(1,0)	
L1D -394>	(6,1)	(1,0)	(1,0)	(1,0)	(1,0)	(1,0)	(1,0)	(1,0)	(1,0)	(1,0)	(1,0)	(1,0)	(1,0)	(1,0)	(1,0)	(1,0)	
L1D -393>	(8,88)	(21,1)	(98,1)	(1,0)	(1,0)	(1,0)	(1,0)	(1,0)	(1,0)	(1,0)	(1,0)	(1,0)	(1,0)	(1,0)	(1,0)	(1,0)	
L1D -392>	(70,41)	(0,1)	(2,3)	(1,1)	(6,1)	(1,0)	(1,0)	(1,0)	(1,0)	(1,0)	(1,0)	(1,0)	(1,0)	(1,0)	(1,0)	(1,0)	
L1D -391>	(20,70)	(-4,0)	(-1,0)	(1,0)	(1,0)	(1,0)	(1,0)	(1,0)	(1,0)	(1,0)	(1,0)	(1,0)	(1,0)	(1,0)	(1,0)	(1,0)	
L1D -390>	(26,98)	(0,2)	(-2,3)	(-23,3)	(191,3)	(-1,1)	(1,0)	(1,0)	(1,0)	(1,0)	(1,0)	(1,0)	(1,0)	(1,0)	(1,0)	(1,0)	
L1D -389>	(-1,3)	(1,0)	(1,0)	(1,0)	(1,0)	(1,0)	(1,0)	(1,0)	(1,0)	(1,0)	(1,0)	(1,0)	(1,0)	(1,0)	(1,0)	(1,0)	
L1D -388>	(148,5)	(267,34)	(0,1)	(-1,2)	(18,1)	(1,0)	(1,0)	(1,0)	(1,0)	(1,0)	(1,0)	(1,0)	(1,0)	(1,0)	(1,0)	(1,0)	
L1D -387>	(3,1)	(-1,2)	(1,0)	(1,0)	(1,0)	(1,0)	(1,0)	(1,0)	(1,0)	(1,0)	(1,0)	(1,0)	(1,0)	(1,0)	(1,0)	(1,0)	
L1D -386>	(246,26)	(0,7)	(9,1)	(1,0)	(1,0)	(1,0)	(1,0)	(1,0)	(1,0)	(1,0)	(1,0)	(1,0)	(1,0)	(1,0)	(1,0)	(1,0)	
L1D -385>	(12,4)	(-12,5)	(15,4)	(1,2)	(6,1)	(1,0)	(1,0)	(1,0)	(1,0)	(1,0)	(1,0)	(1,0)	(1,0)	(1,0)	(1,0)	(1,0)	
L1D -384>	(0,2)	(-1,2)	(221,2)	(2,1)	(1,0)	(1,0)	(1,0)	(1,0)	(1,0)	(1,0)	(1,0)	(1,0)	(1,0)	(1,0)	(1,0)	(1,0)	
L1D -383>	(-1,3)	(1,0)	(1,0)	(1,0)	(1,0)	(1,0)	(1,0)	(1,0)	(1,0)	(1,0)	(1,0)	(1,0)	(1,0)	(1,0)	(1,0)	(1,0)	
L1D -382>	(0,2)	(30,2)	(-1,1)	(1,1)	(1,0)	(1,0)	(1,0)	(1,0)	(1,0)	(1,0)	(1,0)	(1,0)	(1,0)	(1,0)	(1,0)	(1,0)	
L1D -381>	(-1,2)	(1,0)	(1,0)	(1,0)	(1,0)	(1,0)	(1,0)	(1,0)	(1,0)	(1,0)	(1,0)	(1,0)	(1,0)	(1,0)	(1,0)	(1,0)	
L1D -380>	(294,2)	(-1,1)	(1,0)	(1,0)	(1,0)	(1,0)	(1,0)	(1,0)	(1,0)	(1,0)	(1,0)	(1,0)	(1,0)	(1,0)	(1,0)	(1,0)	
L1D -379>	(-1,3)	(1,0)	(1,0)	(1,0)	(1,0)	(1,0)	(1,0)	(1,0)	(1,0)	(1,0)	(1,0)	(1,0)	(1,0)	(1,0)	(1,0)	(1,0)	
L1D -378>	(0,1)	(2,1)	(1,0)	(1,0)	(1,0)	(1,0)	(1,0)	(1,0)	(1,0)	(1,0)	(1,0)	(1,0)	(1,0)	(1,0)	(1,0)	(1,0)	
L1D -377>	(341,3)	(166,1)	(1,0)	(1,0)	(1,0)	(1,0)	(1,0)	(1,0)	(1,0)	(1,0)	(1,0)	(1,0)	(1,0)	(1,0)	(1,0)	(1,0)	
L1D -376>	(1,0)	(1,0)	(1,0)	(1,0)	(1,0)	(1,0)	(1,0)	(1,0)	(1,0)	(1,0)	(1,0)	(1,0)	(1,0)	(1,0)	(1,0)	(1,0)	
L1D -375>	(0,1)	(1,0)	(1,0)	(1,0)	(1,0)	(1,0)	(1,0)	(1,0)	(1,0)	(1,0)	(1,0)	(1,0)	(1,0)	(1,0)	(1,0)	(1,0)	
L1D -374>	(1,0)	(1,0)	(1,0)	(1,0)	(1,0)	(1,0)	(1,0)	(1,0)	(1,0)	(1,0)	(1,0)	(1,0)	(1,0)	(1,0)	(1,0)	(1,0)	
L1D -373>	(0,1)	(1,0)	(1,0)	(1,0)	(1,0)	(1,0)	(1,0)	(1,0)	(1,0)	(1,0)	(1,0)	(1,0)	(1,0)	(1,0)	(1,0)	(1,0)	
L1D -372>	(-21,99)	(-13,0)	(1,0)	(1,0)	(1,0)	(1,0)	(1,0)	(1,0)	(1,0)	(1,0)	(1,0)	(1,0)	(1,0)	(1,0)	(1,0)	(1,0)	
L1D -371>	(214,2)	(3,1)	(-15,1)	(-1,1)	(-24,2)	(-20,3)	(1,0)	(1,0)	(1,0)	(1,0)	(1,0)	(1,0)	(1,0)	(1,0)	(1,0)	(1,0)	
L1D -370>	(234,30)	(140,10)	(184,18)	(1,1)	(1,0)	(1,0)	(1,0)	(1,0)	(1,0)	(1,0)	(1,0)	(1,0)	(1,0)	(1,0)	(1,0)	(1,0)	
L1D -369>	(-1,7)	(1,0)	(1,0)	(1,0)	(1,0)	(1,0)	(1,0)	(1,0)	(1,0)	(1,0)	(1,0)	(1,0)	(1,0)	(1,0)	(1,0)	(1,0)	
L1D -368>	(-4,8)	(366,10)	(0,1)	(-30,1)	(1,0)	(1,0)	(1,0)	(1,0)	(1,0)	(1,0)	(1,0)	(1,0)	(1,0)	(1,0)	(1,0)	(1,0)	
L1D -367>	(1,0)	(1,0)	(1,0)	(1,0)	(1,0)	(1,0)	(1,0)	(1,0)	(1,0)	(1,0)	(1,0)	(1,0)	(1,0)	(1,0)	(1,0)	(1,0)	
L1D -366>	(1,0)	(1,0)	(1,0)	(1,0)	(1,0)	(1,0)	(1,0)	(1,0)	(1,0)	(1,0)	(1,0)	(1,0)	(1,0)	(1,0)	(1,0)	(1,0)	
L1D -365>	(93,12)	(45,1)	(1,0)	(1,0)	(1,0)	(1,0)	(1,0)	(1,0)	(1,0)	(1,0)	(1,0)	(1,0)	(1,0)	(1,0)	(1,0)	(1,0)	
L1D -364>	(268,93)	(44,0)	(-26,2)	(1,0)	(1,0)	(1,0)	(1,0)	(1,0)	(1,0)	(1,0)	(1,0)	(1,0)	(1,0)	(1,0)	(1,0)	(1,0)	
L1D -363>	(403,3)	(175,2)	(83,2)	(345,7)	(-1,3)	(1,0)	(1,0)	(1,0)	(1,0)	(1,0)	(1,0)	(1,0)	(1,0)	(1,0)	(1,0)	(1,0)	
L1D -362>	(360,33)	(1,0)	(1,0)	(1,0)	(1,0)	(1,0)	(1,0)	(1,0)	(1,0)	(1,0)	(1,0)	(1,0)	(1,0)	(1,0)	(1,0)	(1,0)	
L1D -361>	(95,4)	(265,1)	(193,1)	(103,1)	(1,0)	(1,0)	(1,0)	(1,0)	(1,0)	(1,0)	(1,0)	(1,0)	(1,0)	(1,0)	(1,0)	(1,0)	
L1D -360>	(298,100)	(296,9)	(148,3)	(42,1)	(251,1)	(0,0)	(346,0)	(36,0)	(142,1)	(1,0)	(1,0)	(1,0)	(1,0)	(1,0)	(1,0)	(1,0)	
L1D -359>	(-1,5)	(192,1)	(1,0)	(1,0)	(1,0)	(1,0)	(1,0)	(1,0)	(1,0)	(1,0)	(1,0)	(1,0)	(1,0)	(1,0)	(1,0)	(1,0)	
L1D -358>	(0,0)	(234,0)	(356,84)	(16,0)	(316,0)	(1,0)	(1,0)	(1,0)	(1,0)	(1,0)	(1,0)	(1,0)	(1,0)	(1,0)	(1,0)	(1,0)	
L1D -357>	(1,0)	(1,0)	(1,0)	(1,0)	(1,0)	(1,0)	(1,0)	(1,0)	(1,0)	(1,0)	(1,0)	(1,0)	(1,0)	(1,0)	(1,0)	(1,0)	
L1D -356>	(-31,8)	(262,18)	(70,13)	(40,1)	(34,1)	(1,0)	(1,0)	(1,0)	(1,0)	(1,0)	(1,0)	(1,0)	(1,0)	(1,0)	(1,0)	(1,0)	
L1D -355>	(215,102)	(365,4)	(321,0)	(1,0)	(1,0)	(1,0)	(1,0)	(1,0)	(1,0)	(1,0)	(1,0)	(1,0)	(1,0)	(1,0)	(1,0)	(1,0)	
L1D -354>	(336,0)	(250,0)	(380,1)	(303,0)	(268,0)	(240,0)	(-42,0)	(154,0)	(396,1)	(402,0)	(292,0)	(400,1)	(388,113)	(398,0)	(378,2)	(337,0)	
L1D -353>	(1,0)	(1,0)	(1,0)	(1,0)	(1,0)	(1,0)	(1,0)	(1,0)	(1,0)	(1,0)	(1,0)	(1,0)	(1,0)	(1,0)	(1,0)	(1,0)	
L1D -352>	(142,0)	(220,104)	(88,2)	(-30,3)	(26,0)	(12,0)	(242,0)	(254,0)	(260,0)	(38,0)	(212,0)	(264,0)	(124,2)	(2,0)	(218,0)	(92,0)	
L1D -351>	(317,2)	(213,1)	(95,4)	(265,1)	(361,5)	(1,0)	(1,0)	(1,0)	(1,0)	(1,0)	(1,0)	(1,0)	(1,0)	(1,0)	(1,0)	(1,0)	
L1D -350>	(1,106)	(20,5)	(-2,0)	(304,0)	(30,0)	(252,2)	(1,0)	(1,0)	(1,0)	(1,0)	(1,0)	(1,0)	(1,0)	(1,0)	(1,0)	(1,0)	
L1D -349>	(181,4)	(-1,3)	(1,0)	(1,0)	(1,0)	(1,0)	(1,0)	(1,0)	(1,0)	(1,0)	(1,0)	(1,0)	(1,0)	(1,0)	(1,0)	(1,0)	
L1D -348>	(212,4)	(4,18)	(12,2)	(0,1)	(258,2)	(347,31)	(28,36)	(256,14)	(-16,1)	(124,2)	(5,1)	(3,1)	(1,0)	(1,0)	(1,0)	(1,0)	
L1D -347>	(175,1)	(3,18)	(174,16)	(345,1)	(2,62)	(4,12)	(172,13)	(348,24)	(313,2)	(346,12)	(-1,15)	(67,1)	(344,73)	(83,3)	(176,2)	(343,0)	
L1D -346>	(344,0)	(254,23)	(345,65)	(342,45)	(343,10)	(234,0)	(3,1)	(175,0)	(174,0)	(347,0)	(172,1)	(1,9)	(173,0)	(9,0)	(1,0)	(1,0)	
L1D -345>	(1,4)	(311,1)	(345,85)	(347,1)	(265,0)	(172,57)	(342,20)	(346,60)	(348,0)	(173,2)	(2,5)	(169,3)	(175,1)	(171,6)	(344,1)	(3,0)	
L1D -344>	(170,6)	(171,78)	(347,16)	(172,45)	(173,64)	(169,14)	(-3,13)	(343,95)	(348,19)	(1,13)	(-1,17)	(4,126)	(341,38)	(168,1)	(2,5)	(177,2)	
L1D -343>	(170,0)	(341,0)	(346,2)	(171,12)	(342,3)	(172,31)	(345,6)	(-1,85)	(-2,3)	(1,3)	(169,0)	(-3,0)	(343,0)	(2,0)	(173,0)	(168,0)	
L1D -342>	(170,18)	(351,0)	(345,114)	(-1,40)	(171,0)	(-4,0)	(343,0)	(172,1)	(-2,0)	(346,0)	(168,0)	(169,0)	(0,0)	(344,2)	(173,0)	(-3,0)	
L1D -341>	(-3,0)	(172,64)	(342,3)	(171,26)	(170,7)	(-1,72)	(-2,13)	(169,5)	(343,3)	(173,0)	(168,0)	(-4,0)	(1,0)	(0,0)	(1,0)	(1,0)	
L1D -340>	(177,0)	(343,8)	(171,90)	(170,1)	(349,0)	(169,16)	(168,18)	(-4,10)	(1,0)	(-1,11)	(2,0)	(344,11)	(172,7)	(1,0)	(1,0)	(1,0)	
L1D -339>	(397,43)	(170,9)	(189,1)	(310,2)	(399,6)	(79,1)	(169,3)	(1,1)	(-1,1)	(-2,1)	(1,0)	(1,0)	(1,0)	(1,0)	(1,0)	(1,0)	
L1D -338>	(18,2)	(134,2)	(306,8)	(24,50)	(252,6)	(-14,93)	(-1,2)	(230,1)	(-12,12)	(240,3)	(78,33)	(316,23)	(304,41)	(8,7)	(173,7)	(16,4)	
L1D -337>	(365,1)	(-1,118)	(1,3)	(20,0)	(172,35)	(-172,0)	(-2,3)	(1,0)	(1,0)	(1,0)	(1,0)	(1,0)	(1,0)	(1,0)	(1,0)	(1,0)	
L1D -336>	(212,107)	(148,0)	(158,0)	(240,0)	(42,0)	(354,0)	(154,0)	(72,0)	(254,0)	(192,0)	(228,0)	(200,0)	(1,0)	(1,0)	(1,0)	(1,0)	
L1D -335>	(-2,13)	(172,65)	(-1,67)	(1,0)	(1,0)	(1,0)	(1,0)	(1,0)	(1,0)	(1,0)	(1,0)	(1,0)	(1,0)	(1,0)	(1,0)	(1,0)	
L1D -334>	(66,2)	(14,7)	(316,1)	(2,1)	(1,0)	(1,0)	(1,0)	(1,0)	(1,0)	(1,0)	(1,0)	(1,0)	(1,0)	(1,0)	(1,0)	(1,0)	
L1D -333>	(1,0)	(1,0)	(1,0)	(1,0)	(1,0)	(1,0)	(1,0)	(1,0)	(1,0)	(1,0)	(1,0)	(1,0)	(1,0)	(1,0)	(1,0)	(1,0)	
L1D -332>	(18,91)	(334,92)	(220,0)	(338,0)	(-14,0)	(98,4)	(222,0)	(2,0)	(1,0)	(1,0)	(1,0)	(1,0)	(1,0)	(1,0)	(1,0)	(1,0)	
L1D -331>	(2,1)	(1,0)	(1,0)	(1,0)	(1,0)	(1,0)	(1,0)	(1,0)	(1,0)	(1,0)	(1,0)	(1,0)	(1,0)	(1,0)	(1,0)	(1,0)	
L1D -330>	(212,1)	(244,1)	(-1,0)	(116,0)	(10,0)	(196,0)	(8,0)	(-22,84)	(232,11)	(-13,0)	(338,17)	(300,5)	(108,0)	(242,0)	(228,0)	(1,0)	
L1D -329>	(3,108)	(-1,1)	(4,0)	(5,4)	(1,0)	(1,0)	(1,0)	(1,0)	(1,0)	(1,0)	(1,0)	(1,0)	(1,0)	(1,0)	(1,0)	(1,0)	
L1D -328>	(89,0)	(318,0)	(66,0)	(308,0)	(216,96)	(116,16)	(-32,0)	(1,0)	(1,0)	(1,0)	(1,0)	(1,0)	(1,0)	(1,0)	(1,0)	(1,0)	
L1D -327>	(-1,1)	(0,81)	(90,1)	(1,0)	(1,0)	(1,0)	(1,0)	(1,0)	(1,0)	(1,0)	(1,0)	(1,0)	(1,0)	(1,0)	(1,0)	(1,0)	
L1D -326>	(1,118)	(308,0)	(218,1)	(262,0)	(-3,3)	(96,15)	(318,2)	(140,0)	(1,0)	(1,0)	(1,0)	(1,0)	(1,0)	(1,0)	(1,0)	(1,0)	
L1D -325>	(1,65)	(-4,0)	(1,0)	(1,0)	(1,0)	(1,0)	(1,0)	(1,0)	(1,0)	(1,0)	(1,0)	(1,0)	(1,0)	(1,0)	(1,0)	(1,0)	
L1D -324>	(52,0)	(350,0)	(238,75)	(1,6)	(20,1)	(1,0)	(1,0)	(1,0)	(1,0)	(1,0)	(1,0)	(1,0)	(1,0)	(1,0)	(1,0)	(1,0)	
L1D -323>	(2,78)	(215,2)	(1,0)	(1,0)	(1,0)	(1,0)	(1,0)	(1,0)	(1,0)	(1,0)	(1,0)	(1,0)	(1,0)	(1,0)	(1,0)	(1,0)	
L1D -322>	(280,4)	(74,99)	(314,89)	(197,100)	(20,1)	(206,0)	(232,2)	(-2,0)	(82,1)	(42,1)	(356,0)	(320,0)	(96,2)	(302,91)	(2,0)	(174,0)	
L1D -321>	(215,19)	(2,2)	(1,0)	(1,0)	(1,0)	(1,0)	(1,0)	(1,0)	(1,0)	(1,0)	(1,0)	(1,0)	(1,0)	(1,0)	(1,0)	(1,0)	
L1D -320>	(280,0)	(52,3)	(94,0)	(278,1)	(-28,2)	(-14,3)	(-30,0)	(258,0)	(214,2)	(314,0)	(78,2)	(-44,0)	(102,7)	(90,5)	(236,66)	(-16,3)	
L1D -319>	(167,4)	(265,68)	(361,10)	(345,1)	(1,0)	(1,0)	(1,0)	(1,0)	(1,0)	(1,0)	(1,0)	(1,0)	(1,0)	(1,0)	(1,0)	(1,0)	
L1D -318>	(358,0)	(316,0)	(199,0)	(254,6)	(28,0)	(-10,0)	(84,69)	(-28,13)	(352,0)	(104,0)	(201,0)	(94,3)	(22,0)	(-2,0)	(264,0)	(172,0)	
L1D -317>	(265,7)	(345,31)	(-1,1)	(1,0)	(1,0)	(1,0)	(1,0)	(1,0)	(1,0)	(1,0)	(1,0)	(1,0)	(1,0)	(1,0)	(1,0)	(1,0)	
L1D -316>	(244,0)	(100,0)	(30,3)	(32,0)	(2,0)	(112,0)	(-2,0)	(106,85)	(22,0)	(104,0)	(358,0)	(20,51)	(122,0)	(56,0)	(252,3)	(330,0)	
L1D -315>	(0,1)	(-5,4)	(2,4)	(-2,7)	(1,0)	(1,0)	(1,0)	(1,0)	(1,0)	(1,0)	(1,0)	(1,0)	(1,0)	(1,0)	(1,0)	(1,0)	
L1D -314>	(272,88)	(270,2)	(298,80)	(28,0)	(130,0)	(218,0)	(106,2)	(274,1)	(2,0)	(198,2)	(-6,15)	(98,1)	(-18,0)	(206,1)	(254,1)	(-24,0)	
L1D -313>	(2,58)	(0,113)	(241,0)	(-2,33)	(315,19)	(21,7)	(-4,5)	(1,1)	(1,0)	(1,0)	(1,0)	(1,0)	(1,0)	(1,0)	(1,0)	(1,0)	
L1D -312>	(305,66)	(140,0)	(246,0)	(354,0)	(94,0)	(84,0)	(272,0)	(330,0)	(350,8)	(1,0)	(1,0)	(1,0)	(1,0)	(1,0)	(1,0)	(1,0)	
L1D -311>	(89,65)	(311,3)	(1,0)	(1,0)	(1,0)	(1,0)	(1,0)	(1,0)	(1,0)	(1,0)	(1,0)	(1,0)	(1,0)	(1,0)	(1,0)	(1,0)	
L1D -310>	(148,15)	(354,20)	(336,16)	(134,12)	(244,6)	(0,7)	(256,7)	(258,20)	(174,2)	(228,2)	(308,29)	(208,96)	(318,1)	(108,63)	(89,1)	(310,2)	
L1D -309>	(309,123)	(1,0)	(1,0)	(1,0)	(1,0)	(1,0)	(1,0)	(1,0)	(1,0)	(1,0)	(1,0)	(1,0)	(1,0)	(1,0)	(1,0)	(1,0)	
L1D -308>	(2,0)	(260,83)	(122,0)	(270,64)	(258,1)	(82,2)	(222,0)	(86,0)	(-14,0)	(310,0)	(244,1)	(220,0)	(252,0)	(238,0)	(0,3)	(14,0)	
L1D -307>	(307,106)	(308,0)	(1,0)	(1,0)	(1,0)	(1,0)	(1,0)	(1,0)	(1,0)	(1,0)	(1,0)	(1,0)	(1,0)	(1,0)	(1,0)	(1,0)	
L1D -306>	(316,35)	(326,4)	(324,1)	(304,1)	(42,1)	(272,26)	(10,0)	(354,0)	(8,102)	(52,59)	(2,2)	(240,2)	(258,1)	(306,78)	(307,1)	(1,0)	
L1D -305>	(408,2)	(20,2)	(12,97)	(13,5)	(305,11)	(345,1)	(303,0)	(-128,0)	(1,0)	(1,0)	(1,0)	(1,0)	(1,0)	(1,0)	(1,0)	(1,0)	
L1D -304>	(28,34)	(74,10)	(20,5)	(116,4)	(-40,2)	(202,1)	(112,2)	(304,40)	(258,126)	(354,44)	(-22,40)	(208,66)	(-2,1)	(5,1)	(1,0)	(1,0)	
L1D -303>	(68,83)	(140,1)	(28,0)	(260,6)	(154,2)	(242,0)	(1,0)	(1,0)	(1,0)	(1,0)	(1,0)	(1,0)	(1,0)	(1,0)	(1,0)	(1,0)	
L1D -302>	(210,0)	(192,0)	(104,0)	(80,0)	(158,5)	(92,0)	(-22,0)	(96,101)	(188,0)	(1,0)	(1,0)	(1,0)	(1,0)	(1,0)	(1,0)	(1,0)	
L1D -301>	(2,4)	(347,10)	(1,0)	(1,0)	(1,0)	(1,0)	(1,0)	(1,0)	(1,0)	(1,0)	(1,0)	(1,0)	(1,0)	(1,0)	(1,0)	(1,0)	
L1D -300>	(66,35)	(-22,36)	(115,3)	(338,61)	(104,3)	(-8,2)	(192,1)	(98,1)	(2,63)	(242,69)	(118,1)	(314,1)	(207,1)	(1,0)	(1,0)	(1,0)	
L1D -299>	(-1,3)	(-3,5)	(-5,6)	(316,1)	(1,0)	(1,0)	(1,0)	(1,0)	(1,0)	(1,0)	(1,0)	(1,0)	(1,0)	(1,0)	(1,0)	(1,0)	
L1D -298>	(254,5)	(2,7)	(94,1)	(314,1)	(338,0)	(272,0)	(40,0)	(-22,0)	(296,0)	(154,0)	(0,1)	(318,0)	(188,78)	(250,10)	(1,0)	(1,0)	
L1D -297>	(295,5)	(297,5)	(1,0)	(1,0)	(1,0)	(1,0)	(1,0)	(1,0)	(1,0)	(1,0)	(1,0)	(1,0)	(1,0)	(1,0)	(1,0)	(1,0)	
L1D -296>	(42,6)	(294,7)	(26,16)	(338,6)	(258,1)	(267,58)	(200,26)	(284,1)	(256,21)	(-12,1)	(75,6)	(-2,1)	(296,5)	(86,1)	(-22,65)	(250,10)	
L1D -295>	(295,65)	(293,2)	(170,23)	(1,0)	(1,0)	(1,0)	(1,0)	(1,0)	(1,0)	(1,0)	(1,0)	(1,0)	(1,0)	(1,0)	(1,0)	(1,0)	
L1D -294>	(228,1)	(0,1)	(166,114)	(294,0)	(250,101)	(67,0)	(174,1)	(364,1)	(32,19)	(-1,0)	(70,3)	(72,1)	(392,1)	(-20,2)	(268,0)	(44,2)	
L1D -293>	(345,17)	(317,34)	(319,84)	(-12,5)	(-20,42)	(293,12)	(291,0)	(-1,0)	(1,0)	(1,0)	(1,0)	(1,0)	(1,0)	(1,0)	(1,0)	(1,0)	
L1D -292>	(108,1)	(-13,112)	(260,0)	(8,2)	(244,0)	(272,1)	(380,2)	(212,1)	(122,1)	(318,97)	(300,1)	(316,1)	(-21,2)	(10,1)	(294,1)	(40,1)	
L1D -291>	(5,47)	(-4,3)	(-1,2)	(21,1)	(291,90)	(289,1)	(1,0)	(1,0)	(1,0)	(1,0)	(1,0)	(1,0)	(1,0)	(1,0)	(1,0)	(1,0)	
L1D -290>	(30,13)	(122,0)	(42,64)	(54,0)	(18,1)	(212,7)	(291,0)	(302,0)	(40,5)	(244,2)	(288,0)	(224,0)	(264,0)	(262,0)	(116,93)	(10,13)	
L1D -289>	(-1,2)	(320,1)	(289,8)	(290,1)	(211,10)	(1,0)	(1,0)	(1,0)	(1,0)	(1,0)	(1,0)	(1,0)	(1,0)	(1,0)	(1,0)	(1,0)	
L1D -288>	(308,70)	(14,2)	(136,54)	(10,65)	(105,125)	(288,1)	(-2,1)	(211,49)	(218,2)	(-1,1)	(1,0)	(1,0)	(1,0)	(1,0)	(1,0)	(1,0)	
L1D -287>	(-1,3)	(105,37)	(211,64)	(1,0)	(1,0)	(1,0)	(1,0)	(1,0)	(1,0)	(1,0)	(1,0)	(1,0)	(1,0)	(1,0)	(1,0)	(1,0)	
L1D -286>	(20,1)	(308,111)	(204,1)	(186,0)	(222,0)	(106,0)	(270,0)	(38,0)	(-40,0)	(26,0)	(100,0)	(-10,0)	(13,2)	(284,2)	(1,0)	(1,0)	
L1D -285>	(74,1)	(287,4)	(286,9)	(285,10)	(211,15)	(1,0)	(1,0)	(1,0)	(1,0)	(1,0)	(1,0)	(1,0)	(1,0)	(1,0)	(1,0)	(1,0)	
L1D -284>	(-24,0)	(74,0)	(105,0)	(206,0)	(114,0)	(272,0)	(308,0)	(112,0)	(350,0)	(268,1)	(-10,0)	(64,78)	(212,77)	(40,1)	(66,1)	(303,0)	
L1D -283>	(212,32)	(218,13)	(186,10)	(211,1)	(102,5)	(190,0)	(72,124)	(64,13)	(96,13)	(105,0)	(1,0)	(1,0)	(1,0)	(1,0)	(1,0)	(1,0)	
L1D -282>	(211,0)	(316,0)	(114,0)	(308,118)	(106,59)	(318,25)	(218,0)	(98,12)	(222,0)	(105,0)	(1,0)	(1,0)	(1,0)	(1,0)	(1,0)	(1,0)	
L1D -281>	(105,33)	(211,5)	(1,0)	(1,0)	(1,0)	(1,0)	(1,0)	(1,0)	(1,0)	(1,0)	(1,0)	(1,0)	(1,0)	(1,0)	(1,0)	(1,0)	
L1D -280>	(-67,1)	(-12,109)	(-10,1)	(114,0)	(318,0)	(320,1)	(146,43)	(100,0)	(160,97)	(230,3)	(206,0)	(14,0)	(36,0)	(198,6)	(8,4)	(92,1)	
L1D -279>	(105,28)	(-1,4)	(1,0)	(1,0)	(1,0)	(1,0)	(1,0)	(1,0)	(1,0)	(1,0)	(1,0)	(1,0)	(1,0)	(1,0)	(1,0)	(1,0)	
L1D -278>	(318,1)	(312,86)	(0,0)	(264,0)	(82,0)	(304,2)	(228,0)	(212,0)	(214,1)	(368,0)	(200,0)	(224,0)	(292,0)	(-32,0)	(360,96)	(-2,0)	
L1D -277>	(-6,40)	(105,44)	(0,2)	(1,0)	(1,0)	(1,0)	(1,0)	(1,0)	(1,0)	(1,0)	(1,0)	(1,0)	(1,0)	(1,0)	(1,0)	(1,0)	
L1D -276>	(186,23)	(302,3)	(18,4)	(278,1)	(260,2)	(-92,51)	(28,1)	(142,1)	(230,116)	(204,40)	(105,10)	(226,2)	(0,28)	(1,0)	(1,0)	(1,0)	
L1D -275>	(277,44)	(58,5)	(212,117)	(66,0)	(90,0)	(1,0)	(1,0)	(1,0)	(1,0)	(1,0)	(1,0)	(1,0)	(1,0)	(1,0)	(1,0)	(1,0)	
L1D -274>	(166,3)	(-31,5)	(136,7)	(186,3)	(314,1)	(68,2)	(122,41)	(106,12)	(78,84)	(105,2)	(291,13)	(211,41)	(264,1)	(2,1)	(1,0)	(1,0)	
L1D -273>	(105,22)	(211,98)	(155,1)	(1,0)	(1,0)	(1,0)	(1,0)	(1,0)	(1,0)	(1,0)	(1,0)	(1,0)	(1,0)	(1,0)	(1,0)	(1,0)	
L1D -272>	(-54,117)	(268,9)	(-10,21)	(158,1)	(80,88)	(306,1)	(312,44)	(162,2)	(78,2)	(72,32)	(118,5)	(154,1)	(96,4)	(303,83)	(242,3)	(289,3)	
L1D -271>	(5,2)	(105,1)	(-1,1)	(211,110)	(1,0)	(1,0)	(1,0)	(1,0)	(1,0)	(1,0)	(1,0)	(1,0)	(1,0)	(1,0)	(1,0)	(1,0)	
L1D -270>	(-21,103)	(226,0)	(14,0)	(348,1)	(350,0)	(204,0)	(154,0)	(-16,2)	(202,3)	(-25,0)	(28,2)	(272,0)	(1,0)	(1,0)	(1,0)	(1,0)	
L1D -269>	(5,1)	(211,126)	(1,0)	(1,0)	(1,0)	(1,0)	(1,0)	(1,0)	(1,0)	(1,0)	(1,0)	(1,0)	(1,0)	(1,0)	(1,0)	(1,0)	
L1D -268>	(4,8)	(0,5)	(290,29)	(313,4)	(172,76)	(211,0)	(338,0)	(303,0)	(134,0)	(-68,0)	(228,0)	(238,0)	(40,96)	(-52,0)	(198,7)	(200,8)	
L1D -267>	(158,45)	(0,3)	(196,14)	(337,8)	(240,12)	(58,2)	(284,50)	(180,104)	(212,9)	(231,2)	(267,1)	(211,24)	(1,0)	(1,0)	(1,0)	(1,0)	
L1D -266>	(24,0)	(212,1)	(198,0)	(-21,0)	(82,0)	(354,0)	(0,0)	(284,0)	(8,0)	(264,2)	(218,0)	(-95,0)	(96,47)	(168,121)	(72,9)	(328,4)	
L1D -265>	(167,86)	(361,1)	(95,0)	(1,0)	(1,0)	(1,0)	(1,0)	(1,0)	(1,0)	(1,0)	(1,0)	(1,0)	(1,0)	(1,0)	(1,0)	(1,0)	
L1D -264>	(74,2)	(37,1)	(312,0)	(286,43)	(230,35)	(-4,1)	(-16,4)	(36,4)	(-6,27)	(266,5)	(220,1)	(218,5)	(224,81)	(82,15)	(238,93)	(20,89)	
L1D -263>	(0,1)	(361,1)	(75,1)	(41,1)	(1,0)	(1,0)	(1,0)	(1,0)	(1,0)	(1,0)	(1,0)	(1,0)	(1,0)	(1,0)	(1,0)	(1,0)	
L1D -262>	(268,16)	(166,6)	(115,16)	(18,25)	(252,1)	(116,57)	(312,8)	(306,18)	(54,17)	(328,123)	(370,26)	(222,8)	(267,17)	(338,93)	(234,15)	(260,24)	
L1D -261>	(0,67)	(103,35)	(181,1)	(1,0)	(1,0)	(1,0)	(1,0)	(1,0)	(1,0)	(1,0)	(1,0)	(1,0)	(1,0)	(1,0)	(1,0)	(1,0)	
L1D -260>	(212,0)	(152,67)	(-78,1)	(220,0)	(-92,0)	(288,7)	(380,2)	(308,0)	(12,4)	(168,1)	(66,1)	(106,5)	(326,3)	(-90,0)	(-12,0)	(-54,2)	
L1D -259>	(0,81)	(-1,1)	(-3,2)	(24,5)	(1,0)	(1,0)	(1,0)	(1,0)	(1,0)	(1,0)	(1,0)	(1,0)	(1,0)	(1,0)	(1,0)	(1,0)	
L1D -258>	(115,124)	(78,1)	(262,123)	(-58,0)	(38,10)	(66,42)	(242,0)	(-8,1)	(84,0)	(-10,2)	(230,1)	(112,116)	(122,0)	(0,0)	(252,2)	(216,2)	
L1D -257>	(-1,3)	(0,51)	(-3,1)	(1,0)	(1,0)	(1,0)	(1,0)	(1,0)	(1,0)	(1,0)	(1,0)	(1,0)	(1,0)	(1,0)	(1,0)	(1,0)	
L1D -256>	(-14,16)	(2,0)	(84,121)	(266,0)	(208,0)	(236,0)	(328,7)	(242,0)	(232,0)	(185,0)	(312,15)	(0,0)	(8,4)	(90,0)	(124,2)	(168,0)	
L1D -255>	(267,1)	(0,21)	(70,1)	(-1,2)	(1,1)	(1,0)	(1,0)	(1,0)	(1,0)	(1,0)	(1,0)	(1,0)	(1,0)	(1,0)	(1,0)	(1,0)	
L1D -254>	(352,24)	(24,4)	(316,26)	(272,20)	(-1,1)	(114,13)	(318,2)	(121,20)	(-10,13)	(28,48)	(0,21)	(-52,10)	(142,3)	(70,8)	(26,2)	(153,2)	
L1D -253>	(1,2)	(0,6)	(1,0)	(1,0)	(1,0)	(1,0)	(1,0)	(1,0)	(1,0)	(1,0)	(1,0)	(1,0)	(1,0)	(1,0)	(1,0)	(1,0)	
L1D -252>	(146,1)	(386,125)	(2,0)	(208,0)	(112,7)	(260,1)	(267,0)	(106,0)	(188,23)	(118,0)	(116,0)	(360,0)	(154,2)	(256,0)	(164,0)	(28,0)	
L1D -251>	(0,4)	(78,1)	(251,1)	(2,1)	(1,0)	(1,0)	(1,0)	(1,0)	(1,0)	(1,0)	(1,0)	(1,0)	(1,0)	(1,0)	(1,0)	(1,0)	
L1D -250>	(254,75)	(244,18)	(177,7)	(2,88)	(-10,30)	(334,2)	(-40,28)	(113,1)	(70,26)	(121,2)	(-1,1)	(318,2)	(56,31)	(106,2)	(47,2)	(204,1)	
L1D -249>	(0,2)	(249,1)	(-1,4)	(1,0)	(1,0)	(1,0)	(1,0)	(1,0)	(1,0)	(1,0)	(1,0)	(1,0)	(1,0)	(1,0)	(1,0)	(1,0)	
L1D -248>	(2,4)	(211,5)	(10,0)	(-12,58)	(314,1)	(190,112)	(66,1)	(286,0)	(248,0)	(-24,48)	(7,0)	(198,0)	(0,41)	(54,26)	(288,5)	(16,5)	
L1D -247>	(72,2)	(96,0)	(64,0)	(194,97)	(256,0)	(0,0)	(247,0)	(1,0)	(1,0)	(1,0)	(1,0)	(1,0)	(1,0)	(1,0)	(1,0)	(1,0)	
L1D -246>	(39,0)	(18,0)	(48,0)	(336,0)	(272,4)	(364,0)	(318,0)	(294,0)	(78,1)	(-76,84)	(220,50)	(0,0)	(238,5)	(154,5)	(142,1)	(1,0)	
L1D -245>	(0,0)	(-2,2)	(-5,4)	(2,3)	(211,101)	(1,0)	(1,0)	(1,0)	(1,0)	(1,0)	(1,0)	(1,0)	(1,0)	(1,0)	(1,0)	(1,0)	
L1D -244>	(48,9)	(8,0)	(41,0)	(338,0)	(40,0)	(-3,0)	(268,1)	(310,66)	(336,0)	(254,0)	(242,9)	(108,4)	(258,1)	(318,0)	(-22,0)	(0,0)	
L1D -243>	(2,58)	(0,77)	(-2,25)	(245,21)	(-4,4)	(-7,0)	(1,1)	(1,0)	(1,0)	(1,0)	(1,0)	(1,0)	(1,0)	(1,0)	(1,0)	(1,0)	
L1D -242>	(158,10)	(30,1)	(20,16)	(2,86)	(176,0)	(240,0)	(316,0)	(12,1)	(314,2)	(260,3)	(252,2)	(18,1)	(48,7)	(194,13)	(198,0)	(10,1)	
L1D -241>	(0,2)	(1,1)	(1,0)	(1,0)	(1,0)	(1,0)	(1,0)	(1,0)	(1,0)	(1,0)	(1,0)	(1,0)	(1,0)	(1,0)	(1,0)	(1,0)	
L1D -240>	(10,14)	(290,0)	(28,5)	(346,0)	(-74,3)	(-2,1)	(177,0)	(337,0)	(208,0)	(24,1)	(38,4)	(0,0)	(190,5)	(116,3)	(-3,0)	(-10,100)	
L1D -239>	(1,0)	(1,0)	(1,0)	(1,0)	(1,0)	(1,0)	(1,0)	(1,0)	(1,0)	(1,0)	(1,0)	(1,0)	(1,0)	(1,0)	(1,0)	(1,0)	
L1D -238>	(172,0)	(8,3)	(102,0)	(198,0)	(-56,1)	(134,0)	(215,0)	(220,0)	(38,0)	(308,4)	(44,66)	(2,1)	(298,1)	(-76,0)	(16,4)	(280,5)	
L1D -237>	(47,6)	(1,0)	(1,0)	(1,0)	(1,0)	(1,0)	(1,0)	(1,0)	(1,0)	(1,0)	(1,0)	(1,0)	(1,0)	(1,0)	(1,0)	(1,0)	
L1D -236>	(-54,1)	(115,0)	(226,0)	(330,0)	(96,0)	(316,5)	(312,2)	(234,0)	(70,0)	(200,0)	(278,92)	(264,26)	(224,5)	(84,2)	(66,0)	(1,0)	
L1D -235>	(302,87)	(235,0)	(236,0)	(237,1)	(1,0)	(1,0)	(1,0)	(1,0)	(1,0)	(1,0)	(1,0)	(1,0)	(1,0)	(1,0)	(1,0)	(1,0)	
L1D -234>	(146,12)	(318,68)	(42,0)	(250,0)	(114,27)	(220,3)	(223,0)	(210,0)	(244,0)	(14,0)	(-28,24)	(122,0)	(-94,1)	(8,0)	(198,0)	(78,0)	
L1D -233>	(303,1)	(1,1)	(-1,1)	(1,0)	(1,0)	(1,0)	(1,0)	(1,0)	(1,0)	(1,0)	(1,0)	(1,0)	(1,0)	(1,0)	(1,0)	(1,0)	
L1D -232>	(324,27)	(126,71)	(260,2)	(338,13)	(92,6)	(228,5)	(8,3)	(10,1)	(-92,44)	(-88,1)	(88,1)	(28,94)	(112,1)	(224,5)	(-106,1)	(206,22)	
L1D -231>	(-1,5)	(1,0)	(1,0)	(1,0)	(1,0)	(1,0)	(1,0)	(1,0)	(1,0)	(1,0)	(1,0)	(1,0)	(1,0)	(1,0)	(1,0)	(1,0)	
L1D -230>	(162,1)	(115,93)	(302,1)	(14,60)	(304,2)	(228,3)	(338,2)	(-84,2)	(44,73)	(214,4)	(8,65)	(248,6)	(-8,1)	(-12,6)	(160,1)	(190,7)	
L1D -229>	(110,6)	(1,0)	(1,0)	(1,0)	(1,0)	(1,0)	(1,0)	(1,0)	(1,0)	(1,0)	(1,0)	(1,0)	(1,0)	(1,0)	(1,0)	(1,0)	
L1D -228>	(152,1)	(66,1)	(314,3)	(-40,8)	(226,7)	(144,2)	(302,4)	(-124,2)	(200,1)	(96,6)	(128,5)	(162,85)	(250,11)	(266,0)	(206,95)	(252,2)	
L1D -227>	(110,8)	(-1,2)	(238,1)	(224,1)	(0,1)	(1,0)	(1,0)	(1,0)	(1,0)	(1,0)	(1,0)	(1,0)	(1,0)	(1,0)	(1,0)	(1,0)	
L1D -226>	(122,124)	(162,0)	(-28,0)	(62,1)	(70,0)	(324,0)	(176,0)	(-134,123)	(164,0)	(272,1)	(1,0)	(1,0)	(1,0)	(1,0)	(1,0)	(1,0)	
L1D -225>	(318,1)	(228,1)	(1,0)	(1,0)	(1,0)	(1,0)	(1,0)	(1,0)	(1,0)	(1,0)	(1,0)	(1,0)	(1,0)	(1,0)	(1,0)	(1,0)	
L1D -224>	(78,12)	(176,0)	(210,0)	(134,0)	(2,0)	(84,0)	(-96,3)	(68,1)	(250,0)	(334,0)	(-64,0)	(142,0)	(-102,88)	(28,0)	(-16,0)	(132,0)	
L1D -223>	(2,8)	(0,121)	(1,0)	(1,0)	(1,0)	(1,0)	(1,0)	(1,0)	(1,0)	(1,0)	(1,0)	(1,0)	(1,0)	(1,0)	(1,0)	(1,0)	
L1D -222>	(120,6)	(290,118)	(-72,2)	(84,1)	(123,1)	(30,8)	(112,6)	(-10,2)	(332,101)	(258,1)	(80,92)	(244,2)	(232,4)	(320,1)	(14,3)	(-100,92)	
L1D -221>	(14,29)	(-46,4)	(1,3)	(0,9)	(2,2)	(3,1)	(-21,1)	(1,0)	(1,0)	(1,0)	(1,0)	(1,0)	(1,0)	(1,0)	(1,0)	(1,0)	
L1D -220>	(-10,31)	(162,74)	(98,8)	(0,1)	(84,0)	(254,3)	(39,1)	(264,6)	(-1,0)	(166,48)	(-14,3)	(48,11)	(234,12)	(-106,9)	(8,6)	(37,0)	
L1D -219>	(122,112)	(221,4)	(228,0)	(-18,0)	(0,0)	(224,0)	(1,0)	(1,0)	(1,0)	(1,0)	(1,0)	(1,0)	(1,0)	(1,0)	(1,0)	(1,0)	
L1D -218>	(232,119)	(20,0)	(66,0)	(204,0)	(-130,0)	(64,0)	(8,0)	(286,0)	(154,0)	(102,0)	(-94,0)	(149,0)	(212,5)	(234,4)	(-102,1)	(114,1)	
L1D -217>	(-58,1)	(154,1)	(0,2)	(6,1)	(1,0)	(1,0)	(1,0)	(1,0)	(1,0)	(1,0)	(1,0)	(1,0)	(1,0)	(1,0)	(1,0)	(1,0)	
L1D -216>	(212,5)	(22,0)	(20,0)	(34,0)	(94,6)	(193,82)	(2,9)	(-2,0)	(-24,7)	(258,0)	(115,11)	(158,15)	(80,10)	(222,61)	(176,12)	(302,13)	
L1D -215>	(201,3)	(405,2)	(365,1)	(345,3)	(0,1)	(323,1)	(1,0)	(1,0)	(1,0)	(1,0)	(1,0)	(1,0)	(1,0)	(1,0)	(1,0)	(1,0)	
L1D -214>	(20,0)	(28,10)	(300,0)	(212,2)	(160,0)	(236,1)	(-100,0)	(18,2)	(208,4)	(94,0)	(112,1)	(78,0)	(188,1)	(138,1)	(222,98)	(115,1)	
L1D -213>	(95,5)	(102,7)	(361,3)	(351,5)	(319,4)	(167,1)	(181,5)	(143,1)	(1,0)	(1,0)	(1,0)	(1,0)	(1,0)	(1,0)	(1,0)	(1,0)	
L1D -212>	(238,117)	(160,1)	(28,1)	(168,126)	(174,0)	(-116,14)	(150,5)	(304,12)	(272,0)	(208,109)	(216,0)	(-22,3)	(8,3)	(116,0)	(94,0)	(214,8)	
L1D -211>	(175,81)	(-1,3)	(2,19)	(24,41)	(-32,0)	(-2,0)	(211,3)	(142,0)	(1,0)	(1,0)	(1,0)	(1,0)	(1,0)	(1,0)	(1,0)	(1,0)	
L1D -210>	(175,7)	(28,80)	(216,0)	(96,3)	(-14,103)	(150,0)	(14,105)	(24,1)	(112,4)	(-142,2)	(332,0)	(174,2)	(-88,0)	(118,15)	(270,1)	(130,2)	
L1D -209>	(-12,33)	(138,5)	(-32,2)	(-9,1)	(0,7)	(374,1)	(2,1)	(1,0)	(1,0)	(1,0)	(1,0)	(1,0)	(1,0)	(1,0)	(1,0)	(1,0)	
L1D -208>	(28,23)	(94,1)	(258,68)	(344,7)	(236,9)	(116,4)	(-106,3)	(230,6)	(-4,3)	(270,7)	(24,7)	(98,9)	(-34,34)	(-14,7)	(-108,2)	(206,5)	
L1D -207>	(-14,15)	(-60,11)	(110,80)	(-10,1)	(0,1)	(-1,2)	(238,1)	(126,1)	(1,0)	(1,0)	(1,0)	(1,0)	(1,0)	(1,0)	(1,0)	(1,0)	
L1D -206>	(-22,22)	(28,21)	(152,0)	(-8,0)	(-18,2)	(2,2)	(92,1)	(206,26)	(-24,121)	(48,11)	(194,0)	(4,2)	(14,0)	(10,32)	(278,7)	(-28,19)	
L1D -205>	(128,1)	(-16,1)	(2,35)	(0,6)	(277,7)	(-2,1)	(1,6)	(13,1)	(1,0)	(1,0)	(1,0)	(1,0)	(1,0)	(1,0)	(1,0)	(1,0)	
L1D -204>	(304,0)	(8,100)	(88,0)	(-60,0)	(28,0)	(76,0)	(-14,0)	(240,6)	(14,0)	(158,0)	(296,0)	(102,0)	(64,0)	(4,0)	(232,33)	(36,0)	
L1D -203>	(2,116)	(0,22)	(-2,3)	(1,2)	(55,15)	(203,11)	(212,1)	(25,1)	(1,0)	(1,0)	(1,0)	(1,0)	(1,0)	(1,0)	(1,0)	(1,0)	
L1D -202>	(50,0)	(308,1)	(106,3)	(42,77)	(-28,0)	(0,0)	(28,0)	(6,67)	(148,0)	(314,0)	(210,61)	(27,0)	(330,1)	(-166,0)	(312,0)	(100,0)	
L1D -201>	(143,1)	(215,76)	(-61,1)	(0,2)	(355,12)	(1,0)	(1,0)	(1,0)	(1,0)	(1,0)	(1,0)	(1,0)	(1,0)	(1,0)	(1,0)	(1,0)	
L1D -200>	(240,13)	(80,81)	(196,0)	(-38,1)	(-80,1)	(38,0)	(126,0)	(198,0)	(-62,1)	(162,0)	(94,40)	(215,1)	(28,0)	(258,0)	(174,0)	(14,0)	
L1D -199>	(-8,52)	(0,44)	(1,0)	(1,0)	(1,0)	(1,0)	(1,0)	(1,0)	(1,0)	(1,0)	(1,0)	(1,0)	(1,0)	(1,0)	(1,0)	(1,0)	
L1D -198>	(160,15)	(-54,0)	(198,1)	(224,0)	(188,7)	(155,1)	(260,1)	(196,0)	(190,0)	(272,15)	(216,16)	(-84,38)	(234,69)	(244,5)	(-2,0)	(0,2)	
L1D -197>	(0,85)	(1,0)	(1,0)	(1,0)	(1,0)	(1,0)	(1,0)	(1,0)	(1,0)	(1,0)	(1,0)	(1,0)	(1,0)	(1,0)	(1,0)	(1,0)	
L1D -196>	(338,1)	(38,22)	(90,1)	(192,6)	(278,1)	(240,1)	(326,2)	(-78,2)	(84,121)	(236,1)	(238,1)	(130,7)	(12,49)	(228,1)	(-68,2)	(-76,3)	
L1D -195>	(195,106)	(0,0)	(48,105)	(196,0)	(1,0)	(1,0)	(1,0)	(1,0)	(1,0)	(1,0)	(1,0)	(1,0)	(1,0)	(1,0)	(1,0)	(1,0)	
L1D -194>	(-20,1)	(12,3)	(308,4)	(104,75)	(-122,2)	(8,2)	(16,3)	(150,2)	(181,3)	(152,4)	(-72,1)	(-78,1)	(124,4)	(218,5)	(-22,2)	(190,2)	
L1D -193>	(224,59)	(-1,2)	(345,13)	(385,2)	(1,0)	(67,0)	(0,70)	(1,0)	(1,0)	(1,0)	(1,0)	(1,0)	(1,0)	(1,0)	(1,0)	(1,0)	
L1D -192>	(66,66)	(130,1)	(0,0)	(-42,0)	(246,0)	(342,0)	(104,2)	(195,0)	(190,0)	(193,0)	(-68,0)	(-24,0)	(-23,0)	(80,0)	(156,7)	(74,0)	
L1D -191>	(162,1)	(105,7)	(0,41)	(1,0)	(1,0)	(1,0)	(1,0)	(1,0)	(1,0)	(1,0)	(1,0)	(1,0)	(1,0)	(1,0)	(1,0)	(1,0)	
L1D -190>	(188,98)	(92,0)	(132,0)	(208,4)	(254,9)	(14,0)	(62,0)	(41,0)	(40,0)	(338,0)	(318,0)	(106,0)	(84,1)	(10,0)	(136,8)	(128,7)	
L1D -189>	(1,3)	(105,80)	(0,28)	(188,4)	(3,1)	(20,1)	(1,0)	(1,0)	(1,0)	(1,0)	(1,0)	(1,0)	(1,0)	(1,0)	(1,0)	(1,0)	
L1D -188>	(212,1)	(164,4)	(106,2)	(-15,1)	(228,3)	(262,7)	(286,25)	(-46,3)	(186,1)	(20,2)	(260,3)	(28,17)	(150,8)	(100,77)	(254,2)	(-76,58)	
L1D -187>	(-12,103)	(9,25)	(-96,24)	(0,8)	(187,0)	(180,0)	(1,0)	(1,0)	(1,0)	(1,0)	(1,0)	(1,0)	(1,0)	(1,0)	(1,0)	(1,0)	
L1D -186>	(0,0)	(-122,27)	(-76,3)	(-46,9)	(212,56)	(262,0)	(-22,0)	(214,0)	(112,0)	(218,0)	(-2,0)	(-8,0)	(160,0)	(267,102)	(102,14)	(-44,0)	
L1D -185>	(44,0)	(-2,0)	(150,0)	(215,0)	(106,69)	(138,0)	(0,0)	(1,0)	(1,0)	(1,0)	(1,0)	(1,0)	(1,0)	(1,0)	(1,0)	(1,0)	
L1D -184>	(110,87)	(186,1)	(-46,6)	(72,5)	(140,1)	(194,13)	(12,7)	(180,77)	(210,2)	(-108,2)	(-12,1)	(242,2)	(212,5)	(68,4)	(-8,2)	(-16,1)	
L1D -183>	(2,52)	(38,17)	(-70,1)	(0,102)	(122,8)	(5,24)	(161,4)	(185,5)	(105,0)	(8,4)	(-2,4)	(1,1)	(-4,1)	(-1,0)	(6,0)	(1,0)	
L1D -182>	(208,1)	(179,0)	(106,3)	(-132,98)	(-36,98)	(-136,2)	(24,0)	(240,1)	(-46,7)	(38,39)	(161,2)	(-66,30)	(250,1)	(-2,1)	(132,1)	(160,3)	
L1D -181>	(87,1)	(-1,111)	(213,11)	(301,14)	(265,85)	(293,13)	(95,64)	(351,3)	(361,34)	(154,0)	(0,121)	(160,18)	(319,2)	(385,12)	(67,2)	(317,5)	
L1D -180>	(156,3)	(8,81)	(66,18)	(0,5)	(208,90)	(50,1)	(82,9)	(-138,57)	(306,1)	(236,0)	(-30,80)	(-158,0)	(160,19)	(-132,2)	(178,4)	(112,83)	
L1D -179>	(115,0)	(-40,31)	(0,107)	(186,0)	(182,0)	(187,0)	(1,0)	(1,0)	(1,0)	(1,0)	(1,0)	(1,0)	(1,0)	(1,0)	(1,0)	(1,0)	
L1D -178>	(102,113)	(0,0)	(-8,0)	(-28,0)	(154,0)	(48,10)	(204,1)	(134,0)	(232,0)	(186,0)	(324,0)	(277,1)	(176,0)	(270,1)	(-88,0)	(136,114)	
L1D -177>	(244,80)	(26,2)	(272,27)	(154,1)	(173,5)	(215,19)	(-123,1)	(171,17)	(5,1)	(0,8)	(-72,1)	(1,0)	(1,0)	(1,0)	(1,0)	(1,0)	
L1D -176>	(344,2)	(347,64)	(4,5)	(268,6)	(181,0)	(240,0)	(175,4)	(345,1)	(348,1)	(2,0)	(3,0)	(193,0)	(212,0)	(172,0)	(-172,0)	(-98,0)	
L1D -175>	(348,0)	(12,25)	(346,4)	(4,115)	(174,0)	(10,0)	(3,3)	(172,29)	(-1,0)	(-8,8)	(176,0)	(-170,1)	(2,12)	(-169,11)	(180,2)	(343,1)	
L1D -174>	(342,2)	(343,6)	(32,19)	(-172,18)	(173,92)	(175,3)	(4,44)	(-169,2)	(344,5)	(3,6)	(346,17)	(170,2)	(2,4)	(122,1)	(96,2)	(172,2)	
L1D -173>	(347,2)	(344,49)	(170,34)	(1,20)	(-172,75)	(0,1)	(174,121)	(171,1)	(-3,3)	(3,1)	(343,11)	(-173,14)	(-171,8)	(-1,16)	(172,109)	(2,2)	
L1D -172>	(-172,3)	(-1,4)	(-173,8)	(341,0)	(-171,17)	(173,78)	(169,13)	(345,9)	(171,16)	(1,7)	(-169,0)	(-3,5)	(347,1)	(343,1)	(-90,2)	(342,1)	
L1D -171>	(126,5)	(170,24)	(175,1)	(-170,1)	(172,64)	(173,21)	(343,30)	(-3,22)	(-172,18)	(174,22)	(-1,103)	(-173,4)	(-2,24)	(168,19)	(1,17)	(-4,3)	
L1D -170>	(172,84)	(169,14)	(-4,2)	(173,74)	(174,13)	(-3,6)	(-1,88)	(-172,36)	(120,1)	(180,47)	(192,2)	(171,3)	(98,2)	(344,10)	(342,63)	(-110,39)	
L1D -169>	(1,0)	(-2,0)	(-1,33)	(171,89)	(97,0)	(-3,0)	(-175,0)	(168,1)	(-172,7)	(-171,0)	(172,0)	(173,1)	(341,0)	(344,0)	(-4,0)	(342,0)	
L1D -168>	(343,1)	(32,0)	(-172,0)	(56,0)	(158,70)	(172,19)	(-4,1)	(-176,4)	(340,0)	(182,0)	(118,0)	(171,0)	(344,1)	(337,2)	(112,0)	(40,3)	
L1D -167>	(167,35)	(0,1)	(-172,63)	(172,4)	(95,116)	(171,0)	(-1,11)	(170,0)	(75,6)	(361,36)	(-2,2)	(1,1)	(1,0)	(1,0)	(1,0)	(1,0)	
L1D -166>	(-46,0)	(28,0)	(-181,0)	(136,0)	(120,2)	(114,2)	(42,0)	(32,0)	(268,0)	(0,0)	(360,0)	(-106,2)	(220,5)	(26,2)	(8,0)	(214,92)	
L1D -165>	(9,1)	(-1,101)	(1,41)	(172,78)	(176,0)	(-172,22)	(-2,22)	(38,0)	(41,0)	(344,6)	(2,1)	(6,1)	(1,0)	(1,0)	(1,0)	(1,0)	
L1D -164>	(114,74)	(200,0)	(120,1)	(13,3)	(212,0)	(170,3)	(62,0)	(166,0)	(1,0)	(1,0)	(1,0)	(1,0)	(1,0)	(1,0)	(1,0)	(1,0)	
L1D -163>	(1,66)	(12,0)	(2,0)	(0,4)	(42,0)	(-20,2)	(41,0)	(40,0)	(38,0)	(43,0)	(-12,0)	(21,0)	(24,0)	(171,0)	(-1,0)	(1,0)	
L1D -162>	(238,118)	(-148,7)	(-70,0)	(-41,0)	(-24,0)	(-56,0)	(180,1)	(-58,0)	(-38,112)	(148,0)	(-1,3)	(-64,5)	(-2,32)	(11,1)	(136,0)	(6,0)	
L1D -161>	(32,2)	(-110,14)	(5,69)	(21,12)	(-1,5)	(-42,1)	(72,1)	(-72,1)	(1,0)	(1,0)	(1,0)	(1,0)	(1,0)	(1,0)	(1,0)	(1,0)	
L1D -160>	(-4,0)	(2,0)	(234,0)	(188,0)	(-102,0)	(116,0)	(80,0)	(98,0)	(246,1)	(-8,0)	(-100,111)	(28,0)	(145,0)	(12,0)	(-64,117)	(-98,0)	
L1D -159>	(95,97)	(9,47)	(3,18)	(256,1)	(-1,0)	(1,0)	(1,0)	(1,0)	(1,0)	(1,0)	(1,0)	(1,0)	(1,0)	(1,0)	(1,0)	(1,0)	
L1D -158>	(66,6)	(-64,3)	(-48,1)	(-124,1)	(84,0)	(-56,1)	(152,7)	(-154,0)	(0,6)	(126,1)	(150,2)	(48,2)	(144,3)	(-148,0)	(-8,2)	(188,118)	
L1D -157>	(-56,96)	(156,0)	(157,0)	(0,0)	(-84,0)	(1,0)	(1,0)	(1,0)	(1,0)	(1,0)	(1,0)	(1,0)	(1,0)	(1,0)	(1,0)	(1,0)	
L1D -156>	(28,5)	(-122,0)	(182,0)	(-26,7)	(74,0)	(188,2)	(154,0)	(142,1)	(-100,73)	(242,60)	(104,5)	(136,52)	(-6,1)	(126,0)	(18,2)	(102,1)	
L1D -155>	(155,12)	(186,1)	(153,1)	(156,9)	(152,1)	(0,1)	(148,1)	(-1,2)	(179,1)	(182,1)	(1,0)	(1,0)	(1,0)	(1,0)	(1,0)	(1,0)	
L1D -154>	(6,1)	(210,101)	(34,100)	(140,5)	(122,6)	(-102,11)	(-12,88)	(10,1)	(8,4)	(138,1)	(188,3)	(370,1)	(118,3)	(130,1)	(96,11)	(260,1)	
L1D -153>	(0,3)	(153,10)	(156,1)	(64,1)	(-1,16)	(-140,1)	(41,1)	(43,1)	(22,1)	(123,1)	(1,1)	(1,0)	(1,0)	(1,0)	(1,0)	(1,0)	
L1D -152>	(-122,89)	(96,1)	(0,1)	(-136,1)	(-78,0)	(-100,0)	(390,0)	(226,1)	(121,0)	(38,0)	(21,0)	(39,0)	(25,0)	(37,0)	(28,0)	(40,0)	
L1D -151>	(7,2)	(-62,78)	(0,2)	(-5,43)	(-20,69)	(-21,35)	(5,1)	(-4,0)	(1,0)	(-1,0)	(-17,0)	(-13,1)	(24,1)	(36,0)	(28,0)	(27,0)	
L1D -150>	(185,0)	(260,0)	(-192,0)	(210,3)	(224,1)	(208,0)	(220,2)	(138,1)	(258,1)	(-46,1)	(76,0)	(42,1)	(28,1)	(352,73)	(-50,0)	(206,1)	
L1D -149>	(-9,0)	(12,0)	(88,76)	(-154,2)	(15,1)	(-8,3)	(106,0)	(13,0)	(154,0)	(1,0)	(1,0)	(1,0)	(1,0)	(1,0)	(1,0)	(1,0)	
L1D -148>	(326,69)	(212,4)	(150,0)	(216,5)	(-122,81)	(1,0)	(196,0)	(160,1)	(206,2)	(-65,0)	(208,0)	(-100,0)	(218,1)	(0,0)	(42,0)	(258,0)	
L1D -147>	(188,1)	(0,2)	(155,0)	(-66,115)	(262,10)	(-125,49)	(-12,115)	(13,0)	(217,1)	(154,0)	(150,0)	(156,2)	(1,0)	(1,0)	(1,0)	(1,0)	
L1D -146>	(-100,106)	(-67,23)	(-76,13)	(-96,2)	(208,1)	(106,12)	(148,104)	(114,3)	(30,23)	(48,15)	(-120,3)	(26,2)	(1,18)	(2,5)	(8,2)	(-84,8)	
L1D -145>	(0,106)	(-175,0)	(82,1)	(21,0)	(-1,1)	(212,0)	(1,0)	(1,0)	(1,0)	(1,0)	(1,0)	(1,0)	(1,0)	(1,0)	(1,0)	(1,0)	
L1D -144>	(38,111)	(-120,0)	(-170,16)	(236,112)	(-86,0)	(-88,1)	(-72,2)	(-24,0)	(66,89)	(-52,0)	(-74,0)	(-78,0)	(210,1)	(36,1)	(-10,1)	(308,0)	
L1D -143>	(113,1)	(-21,87)	(-125,0)	(126,0)	(40,0)	(-8,0)	(-1,0)	(174,0)	(6,0)	(24,0)	(132,0)	(21,0)	(42,0)	(120,0)	(125,0)	(28,0)	
L1D -142>	(154,12)	(-96,2)	(-178,117)	(156,2)	(49,1)	(-1,0)	(18,4)	(-6,6)	(26,0)	(25,0)	(-76,5)	(32,1)	(38,0)	(37,0)	(6,0)	(232,3)	
L1D -141>	(-44,1)	(25,97)	(43,13)	(23,11)	(38,68)	(37,48)	(6,51)	(24,43)	(26,58)	(27,23)	(21,77)	(41,55)	(42,46)	(39,35)	(40,55)	(36,4)	
L1D -140>	(-14,58)	(102,6)	(26,76)	(-21,73)	(306,1)	(175,2)	(-56,1)	(-92,7)	(-50,22)	(242,2)	(150,23)	(170,2)	(184,2)	(188,1)	(96,3)	(50,53)	
L1D -139>	(-4,64)	(1,92)	(-12,0)	(12,3)	(-25,6)	(-17,0)	(-1,1)	(1,0)	(1,0)	(1,0)	(1,0)	(1,0)	(1,0)	(1,0)	(1,0)	(1,0)	
L1D -138>	(188,0)	(-36,2)	(2,2)	(-154,1)	(236,54)	(66,5)	(232,63)	(-6,64)	(-12,2)	(-98,48)	(-181,1)	(294,2)	(254,16)	(84,6)	(330,2)	(0,3)	
L1D -137>	(232,74)	(0,1)	(-9,1)	(-8,21)	(137,9)	(13,5)	(-95,0)	(12,14)	(-12,2)	(106,0)	(-11,0)	(1,0)	(1,0)	(1,0)	(1,0)	(1,0)	
L1D -136>	(-180,100)	(-13,96)	(-56,0)	(140,1)	(-94,4)	(42,5)	(-108,3)	(232,1)	(-21,0)	(28,0)	(254,1)	(14,2)	(-10,2)	(-44,0)	(-84,0)	(126,2)	
L1D -135>	(-78,10)	(128,5)	(318,1)	(-84,27)	(28,4)	(119,1)	(93,1)	(139,1)	(11,1)	(134,1)	(138,2)	(-72,3)	(-39,3)	(104,3)	(-9,1)	(-31,56)	
L1D -134>	(-13,59)	(12,0)	(-132,0)	(162,47)	(78,0)	(230,0)	(72,0)	(102,0)	(22,43)	(-146,0)	(140,0)	(336,0)	(216,1)	(298,65)	(118,1)	(300,0)	
L1D -133>	(220,2)	(19,1)	(228,5)	(-51,5)	(1,3)	(131,2)	(136,1)	(135,1)	(-1,4)	(-41,2)	(-33,21)	(-120,1)	(-80,3)	(1,0)	(1,0)	(1,0)	
L1D -132>	(120,1)	(-6,1)	(14,1)	(264,0)	(82,71)	(-73,1)	(110,58)	(70,53)	(78,0)	(-42,3)	(-82,10)	(182,0)	(267,1)	(276,0)	(128,1)	(-108,4)	
L1D -131>	(-127,7)	(132,2)	(1,2)	(-15,114)	(-267,7)	(-22,9)	(100,2)	(-43,1)	(175,1)	(-82,28)	(-35,65)	(1,0)	(1,0)	(1,0)	(1,0)	(1,0)	
L1D -130>	(14,5)	(-92,12)	(-16,104)	(-6,1)	(268,2)	(10,2)	(20,7)	(28,1)	(128,1)	(122,0)	(348,0)	(190,0)	(88,1)	(12,2)	(56,117)	(188,105)	
L1D -129>	(46,94)	(131,1)	(-1,6)	(-78,1)	(17,3)	(-269,32)	(23,1)	(6,2)	(100,1)	(-84,2)	(-37,1)	(1,0)	(1,0)	(1,0)	(1,0)	(1,0)	
L1D -128>	(142,77)	(-1,102)	(70,10)	(266,1)	(2,5)	(223,1)	(226,0)	(208,0)	(144,0)	(314,2)	(16,3)	(132,3)	(318,1)	(196,0)	(14,1)	(-54,2)	
L1D -127>	(166,110)	(38,1)	(-22,0)	(45,0)	(127,0)	(-88,1)	(-98,0)	(-140,1)	(184,2)	(122,2)	(1,0)	(1,0)	(1,0)	(1,0)	(1,0)	(1,0)	
L1D -126>	(64,0)	(32,1)	(-1,84)	(172,54)	(-46,61)	(16,0)	(70,9)	(212,0)	(208,0)	(186,0)	(178,3)	(96,0)	(-180,0)	(24,40)	(-54,0)	(-66,0)	
L1D -125>	(84,2)	(240,16)	(226,10)	(-3,73)	(-12,0)	(-1,0)	(-273,0)	(21,0)	(24,0)	(1,0)	(181,0)	(0,0)	(1,0)	(1,0)	(1,0)	(1,0)	
L1D -124>	(48,0)	(130,61)	(-13,73)	(258,0)	(110,0)	(-21,1)	(2,0)	(32,0)	(-80,0)	(-30,0)	(-2,0)	(220,1)	(216,68)	(-26,1)	(112,2)	(-6,0)	
L1D -123>	(332,111)	(25,0)	(236,3)	(-2,0)	(82,0)	(-25,2)	(-1,0)	(1,1)	(-79,0)	(1,0)	(1,0)	(1,0)	(1,0)	(1,0)	(1,0)	(1,0)	
L1D -122>	(218,72)	(78,12)	(-96,77)	(90,1)	(-92,3)	(300,2)	(-28,12)	(-94,71)	(-62,4)	(332,76)	(44,65)	(246,3)	(180,66)	(154,71)	(14,2)	(150,52)	
L1D -121>	(80,3)	(-27,74)	(25,0)	(-7,0)	(70,0)	(-5,0)	(-6,0)	(76,0)	(-26,3)	(236,0)	(-2,0)	(1,0)	(1,0)	(1,0)	(1,0)	(1,0)	
L1D -120>	(62,1)	(24,92)	(109,0)	(162,1)	(48,2)	(146,2)	(352,1)	(-174,6)	(-148,0)	(-88,0)	(-74,0)	(-94,3)	(38,1)	(36,2)	(-114,0)	(-66,0)	
L1D -119>	(114,0)	(25,104)	(92,0)	(1,0)	(1,0)	(1,0)	(1,0)	(1,0)	(1,0)	(1,0)	(1,0)	(1,0)	(1,0)	(1,0)	(1,0)	(1,0)	
L1D -118>	(308,1)	(109,15)	(54,1)	(2,1)	(18,5)	(-102,61)	(78,1)	(152,1)	(-66,3)	(144,10)	(68,78)	(-88,5)	(328,1)	(34,1)	(149,4)	(226,0)	
L1D -117>	(136,1)	(25,3)	(1,15)	(1,0)	(1,0)	(1,0)	(1,0)	(1,0)	(1,0)	(1,0)	(1,0)	(1,0)	(1,0)	(1,0)	(1,0)	(1,0)	
L1D -116>	(216,7)	(218,8)	(122,20)	(158,1)	(-30,1)	(-68,3)	(145,1)	(118,125)	(110,3)	(114,1)	(136,2)	(24,2)	(-194,1)	(-88,1)	(212,7)	(-102,3)	
L1D -115>	(87,68)	(126,0)	(101,0)	(214,0)	(181,0)	(-41,0)	(185,0)	(-65,0)	(1,0)	(1,0)	(1,0)	(1,0)	(1,0)	(1,0)	(1,0)	(1,0)	
L1D -114>	(130,78)	(139,1)	(175,1)	(-94,57)	(-8,0)	(220,0)	(122,1)	(-42,0)	(-96,4)	(82,2)	(120,2)	(16,0)	(318,0)	(-66,1)	(-14,0)	(112,2)	
L1D -113>	(137,1)	(25,1)	(152,10)	(180,2)	(3,4)	(4,4)	(128,1)	(-40,5)	(-285,5)	(-33,12)	(47,6)	(-1,1)	(-391,1)	(1,0)	(1,0)	(1,0)	
L1D -112>	(-16,26)	(-122,90)	(175,109)	(-220,7)	(166,9)	(111,2)	(66,4)	(-72,16)	(49,37)	(-100,24)	(-88,19)	(64,17)	(170,4)	(-56,7)	(-146,1)	(180,46)	
L1D -111>	(-3,1)	(-42,14)	(-35,33)	(-287,16)	(-39,1)	(1,0)	(1,0)	(1,0)	(1,0)	(1,0)	(1,0)	(1,0)	(1,0)	(1,0)	(1,0)	(1,0)	
L1D -110>	(-2,1)	(127,77)	(-48,3)	(218,2)	(302,67)	(66,2)	(-20,4)	(234,5)	(180,6)	(100,5)	(118,92)	(48,1)	(102,1)	(-108,75)	(-32,3)	(-16,74)	
L1D -109>	(266,78)	(16,0)	(23,0)	(18,0)	(-4,0)	(204,0)	(110,0)	(1,0)	(1,0)	(1,0)	(1,0)	(1,0)	(1,0)	(1,0)	(1,0)	(1,0)	
L1D -108>	(118,110)	(15,7)	(-8,1)	(258,4)	(10,2)	(-150,1)	(96,35)	(212,3)	(74,3)	(82,72)	(-152,1)	(-208,2)	(210,87)	(290,3)	(324,2)	(-242,4)	
L1D -107>	(15,0)	(21,5)	(17,0)	(107,0)	(109,88)	(16,7)	(8,15)	(5,0)	(42,0)	(27,0)	(98,0)	(1,0)	(1,0)	(1,0)	(1,0)	(1,0)	
L1D -106>	(150,2)	(-128,1)	(-50,12)	(96,98)	(-94,73)	(268,4)	(78,1)	(13,3)	(76,5)	(80,2)	(260,7)	(15,1)	(14,4)	(122,16)	(202,1)	(-90,1)	
L1D -105>	(-20,101)	(108,0)	(13,0)	(-1,0)	(12,0)	(4,0)	(17,0)	(-4,0)	(1,0)	(1,0)	(1,0)	(1,0)	(1,0)	(1,0)	(1,0)	(1,0)	
L1D -104>	(96,69)	(206,0)	(-36,1)	(5,42)	(47,0)	(12,1)	(64,0)	(18,35)	(136,12)	(-2,5)	(310,1)	(66,18)	(200,3)	(8,0)	(52,0)	(72,3)	
L1D -103>	(-2,18)	(169,0)	(2,3)	(52,0)	(-5,0)	(10,1)	(0,24)	(112,0)	(12,85)	(4,44)	(18,67)	(11,3)	(17,40)	(37,0)	(1,1)	(-7,0)	
L1D -102>	(86,75)	(178,6)	(116,16)	(-36,33)	(74,15)	(184,7)	(-234,7)	(-80,10)	(30,1)	(234,40)	(326,2)	(-20,1)	(58,5)	(70,1)	(256,2)	(66,55)	
L1D -101>	(113,2)	(-121,52)	(201,1)	(-32,1)	(-4,32)	(0,4)	(-41,25)	(29,1)	(-1,2)	(-42,68)	(-35,1)	(60,1)	(1,0)	(1,0)	(1,0)	(1,0)	
L1D -100>	(308,85)	(232,1)	(288,68)	(-146,1)	(108,86)	(220,62)	(28,1)	(182,1)	(14,2)	(276,2)	(88,1)	(-8,48)	(-2,1)	(-52,1)	(-64,0)	(-128,2)	
L1D -99>	(38,47)	(-70,1)	(28,9)	(-10,0)	(-168,0)	(103,0)	(-4,87)	(95,0)	(98,32)	(-123,52)	(-157,0)	(-7,0)	(-72,2)	(185,0)	(1,1)	(1,0)	
L1D -98>	(-167,9)	(-22,86)	(178,2)	(236,2)	(149,3)	(170,1)	(194,5)	(66,4)	(-112,17)	(-72,2)	(-188,4)	(30,2)	(291,1)	(-92,39)	(84,17)	(96,2)	
L1D -97>	(-186,9)	(21,0)	(-2,0)	(101,0)	(0,0)	(95,0)	(4,0)	(-170,84)	(32,2)	(68,0)	(-122,1)	(1,0)	(1,0)	(1,0)	(1,0)	(1,0)	
L1D -96>	(132,4)	(20,64)	(16,7)	(130,58)	(-63,41)	(-42,0)	(216,63)	(-98,13)	(-112,6)	(126,2)	(100,53)	(208,6)	(10,2)	(314,2)	(-46,2)	(148,3)	
L1D -95>	(-11,5)	(-2,58)	(29,90)	(97,28)	(9,51)	(84,1)	(17,21)	(224,29)	(232,18)	(361,109)	(110,5)	(75,10)	(0,8)	(2,19)	(-14,24)	(263,14)	
L1D -94>	(2,74)	(312,0)	(28,65)	(-8,0)	(-70,84)	(198,8)	(96,0)	(83,29)	(8,0)	(216,6)	(-6,3)	(230,0)	(-244,2)	(-4,0)	(-32,45)	(30,1)	
L1D -93>	(2,65)	(-2,2)	(-10,10)	(92,0)	(-4,2)	(0,3)	(-52,6)	(27,102)	(95,7)	(1,0)	(1,0)	(1,0)	(1,0)	(1,0)	(1,0)	(1,0)	
L1D -92>	(210,61)	(24,45)	(274,1)	(-22,1)	(20,80)	(-14,4)	(160,9)	(-30,86)	(18,7)	(-50,13)	(26,10)	(84,57)	(96,85)	(52,21)	(-28,5)	(28,24)	
L1D -91>	(85,0)	(34,0)	(-18,0)	(345,0)	(93,0)	(321,1)	(91,87)	(5,9)	(-12,6)	(-16,2)	(1,0)	(1,0)	(1,0)	(1,0)	(1,0)	(1,0)	
L1D -90>	(9,109)	(264,0)	(81,6)	(220,10)	(182,1)	(18,38)	(260,0)	(120,1)	(68,0)	(84,0)	(91,0)	(-34,11)	(-176,0)	(184,0)	(-12,1)	(254,0)	
L1D -89>	(13,1)	(6,5)	(-8,60)	(15,24)	(12,10)	(-16,105)	(-9,1)	(-3,9)	(-32,0)	(1,0)	(1,0)	(1,0)	(1,0)	(1,0)	(1,0)	(1,0)	
L1D -88>	(48,58)	(72,67)	(242,1)	(137,1)	(-12,59)	(-8,4)	(-120,63)	(92,2)	(32,0)	(-292,0)	(232,11)	(-32,51)	(-124,2)	(0,2)	(-246,3)	(28,73)	
L1D -87>	(70,47)	(32,36)	(0,94)	(-72,5)	(5,1)	(-13,32)	(-17,11)	(-20,3)	(-11,1)	(1,0)	(1,0)	(1,0)	(1,0)	(1,0)	(1,0)	(1,0)	
L1D -86>	(-88,58)	(-18,6)	(-58,80)	(-294,75)	(13,7)	(82,1)	(214,4)	(168,26)	(8,3)	(-120,2)	(54,1)	(-26,5)	(-14,4)	(-44,7)	(-76,1)	(10,8)	
L1D -85>	(-1,89)	(12,39)	(-18,0)	(0,0)	(-7,0)	(86,0)	(-20,0)	(1,0)	(1,0)	(1,0)	(1,0)	(1,0)	(1,0)	(1,0)	(1,0)	(1,0)	
L1D -84>	(172,45)	(-4,0)	(274,0)	(302,75)	(-204,16)	(106,2)	(314,8)	(-236,14)	(-238,8)	(98,7)	(18,63)	(82,6)	(-102,3)	(254,0)	(13,45)	(224,1)	
L1D -83>	(81,104)	(-1,74)	(83,60)	(0,5)	(2,0)	(385,0)	(323,0)	(1,0)	(1,0)	(1,0)	(1,0)	(1,0)	(1,0)	(1,0)	(1,0)	(1,0)	
L1D -82>	(-222,1)	(136,1)	(192,0)	(1,68)	(-2,11)	(84,103)	(88,4)	(2,24)	(-7,0)	(-45,0)	(30,2)	(60,30)	(78,29)	(246,5)	(308,0)	(-41,0)	
L1D -81>	(81,6)	(9,0)	(0,1)	(2,0)	(-23,0)	(5,106)	(6,12)	(-9,0)	(16,1)	(22,0)	(1,106)	(1,0)	(1,0)	(1,0)	(1,0)	(1,0)	
L1D -80>	(96,57)	(36,8)	(138,112)	(8,1)	(-130,1)	(188,8)	(260,54)	(318,3)	(-41,1)	(-86,0)	(82,1)	(223,0)	(1,14)	(-2,0)	(246,1)	(-7,59)	
L1D -79>	(81,0)	(22,1)	(9,57)	(15,0)	(42,64)	(5,10)	(3,0)	(14,4)	(7,0)	(-25,0)	(21,0)	(4,0)	(79,0)	(8,0)	(35,0)	(16,0)	
L1D -78>	(-41,4)	(12,0)	(40,73)	(338,1)	(24,0)	(15,2)	(172,4)	(8,1)	(122,0)	(66,0)	(128,3)	(18,2)	(-102,1)	(76,0)	(270,1)	(246,1)	
L1D -77>	(13,99)	(75,1)	(-2,1)	(40,23)	(15,13)	(76,0)	(4,0)	(1,0)	(1,0)	(1,0)	(1,0)	(1,0)	(1,0)	(1,0)	(1,0)	(1,0)	
L1D -76>	(-2,4)	(38,84)	(-196,1)	(-13,26)	(338,25)	(-5,2)	(-138,25)	(314,1)	(-48,28)	(8,10)	(18,15)	(-21,1)	(136,0)	(112,0)	(-130,4)	(98,1)	
L1D -75>	(76,0)	(38,0)	(37,0)	(-4,72)	(10,0)	(12,83)	(52,0)	(361,0)	(103,0)	(-6,0)	(77,0)	(-1,0)	(1,0)	(1,0)	(1,0)	(1,0)	
L1D -74>	(30,6)	(-36,64)	(44,43)	(-128,121)	(6,116)	(84,2)	(72,30)	(14,4)	(-112,9)	(2,5)	(130,1)	(-168,11)	(336,1)	(314,100)	(16,39)	(42,0)	
L1D -73>	(2,1)	(67,94)	(-177,1)	(111,0)	(0,0)	(-20,1)	(-21,4)	(11,0)	(-115,0)	(1,0)	(1,0)	(1,0)	(1,0)	(1,0)	(1,0)	(1,0)	
L1D -72>	(48,0)	(28,63)	(9,64)	(192,1)	(-6,4)	(118,0)	(-7,13)	(-3,29)	(-16,8)	(-122,11)	(34,73)	(-98,0)	(208,0)	(-8,1)	(1,0)	(72,13)	
L1D -71>	(71,0)	(234,0)	(-150,9)	(-13,1)	(-8,23)	(-20,60)	(-21,77)	(57,1)	(1,0)	(69,0)	(9,66)	(-10,10)	(70,73)	(-7,27)	(2,0)	(0,1)	
L1D -70>	(-70,106)	(106,2)	(336,103)	(22,1)	(-188,10)	(118,9)	(154,3)	(0,1)	(72,2)	(-80,2)	(35,81)	(308,1)	(30,54)	(384,2)	(-38,5)	(28,105)	
L1D -69>	(18,8)	(109,21)	(1,41)	(12,86)	(-8,0)	(-3,0)	(95,1)	(10,0)	(1,0)	(1,0)	(1,0)	(1,0)	(1,0)	(1,0)	(1,0)	(1,0)	
L1D -68>	(-2,116)	(70,1)	(11,8)	(186,9)	(22,1)	(-4,29)	(106,3)	(308,6)	(-6,4)	(48,14)	(-1,1)	(2,5)	(114,4)	(170,2)	(-200,0)	(-222,2)	
L1D -67>	(-138,105)	(1,54)	(293,1)	(2,0)	(-14,30)	(12,35)	(385,0)	(-108,0)	(1,0)	(1,0)	(1,0)	(1,0)	(1,0)	(1,0)	(1,0)	(1,0)	
L1D -66>	(298,58)	(-214,1)	(-28,7)	(-148,4)	(92,14)	(-176,44)	(26,1)	(12,65)	(-26,71)	(-1,3)	(84,15)	(194,56)	(20,4)	(184,60)	(96,12)	(-212,6)	
L1D -65>	(-2,0)	(0,0)	(40,0)	(-116,0)	(-154,0)	(-32,0)	(2,66)	(66,0)	(-44,0)	(-10,62)	(-30,0)	(-35,0)	(29,0)	(-22,0)	(1,0)	(1,0)	
L1D -64>	(-146,0)	(62,66)	(-222,0)	(-244,58)	(-115,2)	(-136,6)	(218,1)	(2,3)	(66,4)	(26,58)	(4,3)	(-13,26)	(88,8)	(-54,0)	(79,1)	(90,46)	
L1D -63>	(131,0)	(141,9)	(95,6)	(63,103)	(-16,6)	(-154,0)	(-9,5)	(-184,0)	(-12,9)	(19,0)	(0,0)	(5,3)	(26,6)	(-177,0)	(1,0)	(1,0)	
L1D -62>	(-32,89)	(56,6)	(90,44)	(4,58)	(140,2)	(118,64)	(-128,1)	(54,19)	(242,2)	(-190,71)	(-72,2)	(-10,1)	(102,3)	(-6,1)	(48,2)	(-8,5)	
L1D -61>	(-1,60)	(343,2)	(-84,64)	(-242,29)	(-88,0)	(-186,32)	(-122,28)	(344,8)	(18,0)	(10,28)	(-10,1)	(-16,12)	(-72,0)	(7,0)	(-17,1)	(1,0)	
L1D -60>	(52,6)	(-140,78)	(22,0)	(-8,99)	(240,0)	(72,1)	(90,0)	(-196,96)	(30,3)	(-10,4)	(-206,0)	(-90,7)	(-222,0)	(54,2)	(0,0)	(2,0)	
L1D -59>	(-127,9)	(-7,33)	(1,0)	(0,3)	(-13,87)	(321,0)	(5,0)	(-11,1)	(-3,0)	(12,0)	(26,0)	(3,0)	(37,2)	(-1,0)	(1,0)	(1,0)	
L1D -58>	(-42,4)	(48,0)	(-126,4)	(-44,0)	(-10,0)	(2,0)	(-198,0)	(-58,0)	(118,1)	(0,0)	(-190,0)	(326,5)	(-18,111)	(-188,4)	(115,5)	(-62,3)	
L1D -57>	(-20,77)	(47,0)	(-23,69)	(1,4)	(-21,19)	(-47,2)	(-25,1)	(159,1)	(49,0)	(-127,7)	(37,0)	(0,0)	(-2,0)	(2,0)	(1,0)	(1,0)	
L1D -56>	(2,105)	(294,5)	(40,1)	(214,0)	(-88,0)	(16,3)	(-4,0)	(48,0)	(240,0)	(182,0)	(-28,0)	(72,0)	(0,0)	(-108,0)	(-8,0)	(-126,0)	
L1D -55>	(7,0)	(78,0)	(96,0)	(133,19)	(-154,6)	(-3,6)	(-2,0)	(-235,0)	(266,75)	(-259,0)	(13,0)	(-13,0)	(0,0)	(37,0)	(1,0)	(1,0)	
L1D -54>	(206,1)	(318,69)	(-265,3)	(210,0)	(-132,1)	(70,0)	(76,4)	(38,7)	(56,0)	(2,1)	(-166,1)	(22,3)	(-140,0)	(-24,4)	(146,2)	(-98,2)	
L1D -53>	(2,5)	(53,2)	(25,0)	(-4,0)	(0,66)	(146,64)	(-2,10)	(148,3)	(-122,8)	(1,0)	(55,3)	(37,0)	(20,0)	(1,0)	(1,0)	(1,0)	
L1D -52>	(47,1)	(-190,1)	(-46,11)	(-104,8)	(1,14)	(-122,1)	(-32,18)	(114,105)	(-76,2)	(-98,27)	(13,24)	(-1,2)	(-252,4)	(-136,2)	(-114,3)	(-220,2)	
L1D -51>	(1,114)	(-69,9)	(51,3)	(-30,38)	(-5,31)	(322,1)	(0,5)	(18,0)	(49,0)	(-1,1)	(-44,1)	(1,0)	(1,0)	(1,0)	(1,0)	(1,0)	
L1D -50>	(272,124)	(-80,8)	(22,24)	(174,1)	(-234,6)	(56,19)	(-144,5)	(-264,1)	(-68,3)	(-70,4)	(16,18)	(122,5)	(200,50)	(10,11)	(13,10)	(136,96)	
L1D -49>	(1,108)	(38,0)	(55,0)	(0,0)	(10,0)	(-5,1)	(-3,0)	(-6,0)	(49,0)	(12,63)	(-72,0)	(-1,33)	(1,0)	(1,0)	(1,0)	(1,0)	
L1D -48>	(16,88)	(50,4)	(46,71)	(146,1)	(-148,6)	(136,3)	(-250,1)	(2,4)	(10,34)	(-2,93)	(-26,3)	(-1,6)	(-80,85)	(-354,90)	(180,5)	(-106,81)	
L1D -47>	(0,0)	(51,87)	(47,0)	(-1,0)	(20,0)	(52,0)	(39,3)	(43,0)	(1,0)	(1,0)	(1,0)	(1,0)	(1,0)	(1,0)	(1,0)	(1,0)	
L1D -46>	(172,7)	(1,4)	(-92,90)	(-108,80)	(266,89)	(127,25)	(51,1)	(-284,3)	(-1,72)	(-222,12)	(50,83)	(68,18)	(-234,35)	(144,6)	(47,4)	(14,30)	
L1D -45>	(44,1)	(1,1)	(129,1)	(46,0)	(-3,88)	(6,7)	(-15,0)	(-204,53)	(45,5)	(-1,0)	(19,3)	(53,0)	(-2,2)	(0,1)	(49,0)	(47,0)	
L1D -44>	(46,5)	(30,1)	(122,0)	(172,0)	(-21,74)	(-36,3)	(-108,0)	(-100,1)	(-35,13)	(44,0)	(-18,0)	(42,1)	(-86,0)	(-6,1)	(50,0)	(18,1)	
L1D -43>	(9,38)	(-92,12)	(2,0)	(7,99)	(43,0)	(18,9)	(0,2)	(6,25)	(-260,0)	(58,80)	(47,0)	(109,0)	(44,70)	(81,0)	(41,0)	(22,0)	
L1D -42>	(-4,27)	(79,0)	(-236,0)	(-78,0)	(102,0)	(42,1)	(-40,7)	(148,2)	(-216,2)	(138,125)	(130,0)	(-200,0)	(-188,2)	(-130,0)	(14,2)	(39,0)	
L1D -41>	(41,62)	(7,106)	(25,79)	(34,3)	(78,4)	(154,11)	(32,1)	(119,111)	(40,2)	(9,3)	(35,1)	(22,0)	(10,2)	(0,18)	(42,3)	(33,4)	
L1D -40>	(-152,87)	(-196,16)	(-60,21)	(-5,91)	(290,1)	(15,27)	(-194,10)	(34,84)	(-30,10)	(4,43)	(-202,64)	(-2,67)	(246,4)	(100,1)	(42,7)	(-78,5)	
L1D -39>	(-9,5)	(39,54)	(0,15)	(34,6)	(38,2)	(-3,1)	(9,2)	(27,1)	(41,12)	(126,2)	(33,2)	(-20,96)	(42,7)	(11,3)	(35,11)	(22,3)	
L1D -38>	(-62,13)	(-86,45)	(-2,2)	(-350,51)	(-66,55)	(-34,58)	(-148,48)	(75,9)	(0,3)	(26,0)	(14,56)	(1,60)	(37,64)	(12,12)	(-18,21)	(-58,1)	
L1D -37>	(-3,0)	(-15,0)	(22,0)	(28,0)	(-35,103)	(16,0)	(-4,18)	(-30,1)	(37,0)	(-44,0)	(-22,9)	(-38,1)	(-20,7)	(34,0)	(-7,0)	(9,0)	
L1D -36>	(48,54)	(-67,56)	(66,50)	(-290,35)	(-76,1)	(82,6)	(-5,11)	(-174,3)	(56,28)	(11,95)	(218,2)	(-8,6)	(-72,6)	(264,1)	(22,2)	(-118,1)	
L1D -35>	(28,18)	(-35,1)	(-171,5)	(35,0)	(9,0)	(49,14)	(72,55)	(-45,5)	(-136,1)	(38,38)	(-5,0)	(14,50)	(34,62)	(-6,0)	(-3,76)	(79,0)	
L1D -34>	(38,5)	(20,1)	(-64,0)	(-92,16)	(-87,0)	(-10,0)	(-7,0)	(1,0)	(16,0)	(-234,16)	(10,0)	(-106,0)	(-2,5)	(49,125)	(11,0)	(44,0)	
L1D -33>	(2,85)	(33,78)	(0,73)	(-7,10)	(-2,1)	(-4,8)	(5,1)	(-6,3)	(-1,4)	(36,5)	(41,1)	(34,4)	(1,12)	(35,2)	(8,1)	(-181,3)	
L1D -32>	(14,56)	(264,20)	(36,81)	(-100,1)	(-240,38)	(84,2)	(58,65)	(-66,56)	(230,29)	(-54,1)	(-8,10)	(-86,7)	(-2,12)	(20,10)	(10,52)	(21,22)	
L1D -31>	(20,25)	(31,1)	(-13,0)	(12,90)	(-1,9)	(8,0)	(32,15)	(-182,0)	(0,1)	(-6,0)	(-7,1)	(34,0)	(38,0)	(-211,1)	(-2,0)	(2,0)	
L1D -30>	(250,1)	(14,4)	(-124,0)	(124,40)	(-140,4)	(46,8)	(-62,14)	(362,40)	(-38,40)	(8,67)	(112,32)	(-126,27)	(19,2)	(-8,11)	(62,2)	(-30,4)	
L1D -29>	(31,64)	(-1,0)	(23,0)	(-6,0)	(74,0)	(29,0)	(0,0)	(17,51)	(3,0)	(-4,0)	(25,0)	(-11,0)	(21,0)	(26,0)	(20,2)	(32,0)	
L1D -28>	(238,46)	(75,14)	(2,6)	(72,2)	(18,7)	(34,119)	(0,19)	(-74,58)	(30,1)	(-56,96)	(160,23)	(242,7)	(112,1)	(31,3)	(8,11)	(19,3)	
L1D -27>	(19,2)	(114,0)	(11,4)	(97,49)	(2,15)	(4,3)	(31,5)	(-3,1)	(3,32)	(27,0)	(1,118)	(5,7)	(-4,0)	(6,0)	(12,2)	(7,0)	
L1D -26>	(-118,1)	(24,4)	(40,1)	(1,119)	(-96,10)	(248,1)	(-52,7)	(-192,9)	(-66,0)	(144,0)	(-64,1)	(70,0)	(-308,0)	(30,2)	(62,0)	(294,0)	
L1D -25>	(3,1)	(-1,1)	(31,1)	(2,0)	(26,117)	(63,12)	(-12,12)	(-2,0)	(-16,42)	(27,3)	(13,0)	(5,0)	(9,7)	(7,1)	(8,0)	(12,1)	
L1D -24>	(9,51)	(-80,24)	(18,6)	(-6,16)	(22,1)	(272,1)	(3,71)	(27,2)	(-170,7)	(-258,95)	(8,51)	(12,8)	(140,110)	(338,12)	(230,5)	(16,6)	
L1D -23>	(2,26)	(392,5)	(18,78)	(25,90)	(19,14)	(1,70)	(182,9)	(-52,17)	(24,57)	(-7,11)	(-4,1)	(-5,20)	(0,11)	(390,18)	(-39,9)	(96,7)	
L1D -22>	(-2,4)	(-8,2)	(38,63)	(104,8)	(1,117)	(254,61)	(-13,9)	(326,49)	(17,6)	(-4,18)	(96,9)	(9,57)	(-6,15)	(16,11)	(25,20)	(3,3)	
L1D -21>	(1,20)	(290,1)	(29,12)	(15,3)	(13,14)	(8,18)	(-10,5)	(7,8)	(65,3)	(-1,8)	(18,4)	(-4,1)	(5,29)	(2,87)	(-11,2)	(23,0)	
L1D -20>	(40,119)	(162,20)	(-2,32)	(16,56)	(18,85)	(159,13)	(-15,10)	(17,59)	(289,31)	(229,57)	(143,21)	(22,74)	(-1,69)	(11,1)	(311,45)	(5,19)	
L1D -19>	(17,1)	(5,17)	(2,48)	(1,9)	(18,8)	(10,18)	(6,92)	(-9,121)	(152,26)	(4,11)	(63,40)	(21,17)	(-4,47)	(29,44)	(176,3)	(8,4)	
L1D -18>	(31,7)	(18,24)	(22,1)	(19,8)	(-2,47)	(-308,8)	(-90,8)	(66,6)	(-63,8)	(15,4)	(14,4)	(54,8)	(-252,9)	(38,78)	(60,4)	(1,4)	
L1D -17>	(6,1)	(-2,0)	(5,0)	(0,88)	(1,10)	(22,9)	(-1,0)	(13,0)	(4,1)	(48,0)	(2,0)	(19,1)	(17,0)	(23,0)	(8,16)	(-21,0)	
L1D -16>	(3,1)	(42,124)	(276,17)	(-10,4)	(7,9)	(79,20)	(2,3)	(36,20)	(98,2)	(21,8)	(64,18)	(13,3)	(30,19)	(8,8)	(-72,1)	(-44,1)	
L1D -15>	(4,1)	(13,2)	(-5,12)	(2,8)	(20,25)	(115,1)	(5,2)	(18,42)	(-4,3)	(8,24)	(-1,16)	(17,6)	(9,49)	(6,68)	(32,1)	(0,3)	
L1D -14>	(66,6)	(218,69)	(276,4)	(-36,1)	(-88,4)	(-5,68)	(1,6)	(-154,1)	(40,2)	(-142,9)	(10,5)	(-121,2)	(-204,8)	(-96,82)	(22,31)	(100,7)	
L1D -13>	(28,53)	(9,14)	(-7,15)	(5,12)	(34,10)	(0,19)	(-12,34)	(19,7)	(-3,1)	(-8,106)	(2,13)	(33,29)	(4,26)	(-9,5)	(8,37)	(12,22)	
L1D -12>	(-4,79)	(10,2)	(28,2)	(18,18)	(-130,29)	(-7,60)	(-30,29)	(-46,26)	(-84,10)	(-234,26)	(-8,30)	(75,24)	(9,7)	(-82,27)	(-12,11)	(338,11)	
L1D -11>	(-18,28)	(-9,7)	(19,7)	(13,4)	(-79,46)	(-7,90)	(17,6)	(9,7)	(2,5)	(6,3)	(91,1)	(28,9)	(-5,44)	(10,4)	(8,13)	(16,9)	
L1D -10>	(218,1)	(12,37)	(19,2)	(1,2)	(30,46)	(13,2)	(28,9)	(17,57)	(-156,23)	(14,5)	(2,90)	(106,25)	(-52,8)	(0,1)	(-5,81)	(6,2)	
L1D -9>	(5,90)	(28,62)	(17,11)	(72,16)	(-1,6)	(6,12)	(18,9)	(4,9)	(29,1)	(10,6)	(47,1)	(-7,11)	(9,11)	(-11,5)	(8,5)	(1,3)	
L1D -8>	(-1,2)	(5,67)	(23,23)	(185,11)	(9,20)	(-32,43)	(-20,40)	(0,29)	(14,101)	(-2,43)	(15,39)	(-48,25)	(2,30)	(-8,52)	(205,36)	(12,13)	
L1D -7>	(7,60)	(-19,0)	(5,88)	(-1,3)	(15,62)	(22,32)	(176,9)	(6,11)	(10,4)	(12,5)	(62,1)	(89,11)	(9,3)	(-9,18)	(8,3)	(-36,2)	
L1D -6>	(13,9)	(236,6)	(1,80)	(3,83)	(-7,6)	(8,18)	(-2,67)	(10,45)	(7,1)	(-114,26)	(-25,2)	(28,38)	(24,4)	(254,1)	(-3,16)	(14,12)	
L1D -5>	(6,8)	(0,0)	(5,1)	(18,1)	(1,81)	(12,3)	(2,2)	(138,5)	(14,3)	(-28,5)	(-3,5)	(-1,3)	(-2,1)	(19,4)	(17,11)	(8,5)	
L1D -4>	(42,87)	(-3,44)	(-342,72)	(-5,27)	(-6,1)	(3,20)	(4,8)	(79,16)	(-21,18)	(35,24)	(5,14)	(0,18)	(7,71)	(26,29)	(2,25)	(103,27)	
L1D -3>	(2,18)	(346,3)	(3,26)	(0,83)	(12,15)	(202,1)	(-2,1)	(-7,4)	(18,1)	(10,13)	(-6,5)	(1,2)	(5,2)	(172,1)	(4,30)	(-5,3)	
L1D -2>	(1,59)	(3,8)	(-171,10)	(4,23)	(-3,26)	(22,1)	(-18,5)	(7,30)	(-8,9)	(-1,9)	(40,14)	(-2,46)	(19,42)	(-10,4)	(13,18)	(2,81)	
L1D -1>	(3,25)	(0,12)	(-3,24)	(-1,114)	(2,57)	(-2,17)	(4,56)	(172,22)	(171,17)	(169,1)	(173,12)	(-170,10)	(1,53)	(-171,53)	(-172,11)	(-8,9)	
L1D 0>	(17,1)	(-8,0)	(7,0)	(2,7)	(-4,0)	(0,103)	(5,0)	(-9,3)	(-90,0)	(63,0)	(1,14)	(-2,12)	(-48,0)	(-7,0)	(-5,0)	(-1,1)	
L1D 1>	(1,79)	(-4,0)	(-9,1)	(-6,1)	(15,4)	(-5,3)	(-3,5)	(0,10)	(342,0)	(21,4)	(2,2)	(-13,0)	(-1,0)	(-2,2)	(-17,0)	(80,4)	
L1D 2>	(-4,39)	(-9,36)	(-173,15)	(0,68)	(5,31)	(1,12)	(-1,52)	(54,88)	(-3,12)	(2,11)	(4,24)	(-172,26)	(-2,120)	(-345,1)	(63,22)	(3,12)	
L1D 3>	(342,1)	(3,22)	(2,42)	(1,68)	(-1,25)	(343,22)	(-173,47)	(6,9)	(-10,15)	(170,13)	(-13,12)	(8,10)	(0,26)	(21,9)	(171,18)	(-4,6)	
L1D 4>	(0,58)	(2,30)	(-176,67)	(8,32)	(-9,32)	(-1,127)	(342,126)	(6,19)	(-24,1)	(344,3)	(1,31)	(170,73)	(-6,44)	(-20,24)	(-174,76)	(168,67)	
L1D 5>	(0,20)	(2,8)	(7,83)	(-7,2)	(-2,16)	(76,62)	(-18,4)	(20,21)	(5,27)	(58,17)	(1,1)	(18,3)	(13,4)	(9,2)	(12,1)	(3,3)	
L1D 6>	(-10,26)	(94,54)	(2,51)	(-15,78)	(-7,127)	(-19,25)	(8,28)	(-25,14)	(4,19)	(31,1)	(-128,55)	(7,19)	(18,61)	(-17,15)	(-18,7)	(14,54)	
L1D 7>	(-2,11)	(-5,1)	(0,84)	(5,28)	(2,9)	(74,2)	(-7,30)	(-13,1)	(28,0)	(-1,0)	(-21,0)	(1,2)	(-17,0)	(-3,2)	(11,2)	(-18,4)	
L1D 8>	(10,16)	(8,49)	(-80,27)	(9,44)	(-22,1)	(-17,59)	(-13,57)	(0,16)	(158,32)	(29,27)	(194,32)	(-9,17)	(21,45)	(-19,73)	(94,12)	(-3,18)	
L1D 9>	(19,3)	(63,5)	(-6,1)	(12,5)	(-9,40)	(38,7)	(9,1)	(3,12)	(-1,3)	(72,116)	(-4,15)	(-18,8)	(18,11)	(1,1)	(4,1)	(-7,4)	
L1D 10>	(5,19)	(-17,13)	(133,3)	(-11,9)	(3,117)	(-72,43)	(27,64)	(4,7)	(-18,22)	(0,7)	(-156,50)	(-194,9)	(-12,8)	(-10,1)	(-19,59)	(6,28)	
L1D 11>	(-12,2)	(1,9)	(5,0)	(-16,26)	(23,4)	(-90,93)	(-11,5)	(2,0)	(133,2)	(-20,6)	(0,19)	(-3,0)	(-18,1)	(-21,0)	(27,1)	(-17,0)	
L1D 12>	(19,62)	(-24,40)	(5,107)	(63,57)	(133,13)	(-3,21)	(-20,94)	(-13,1)	(-9,53)	(27,10)	(0,18)	(-7,40)	(76,34)	(-21,10)	(-19,83)	(144,21)	
L1D 13>	(-15,2)	(27,33)	(6,4)	(-11,3)	(-3,12)	(-20,82)	(-5,20)	(8,14)	(-16,2)	(-4,0)	(-21,3)	(-18,1)	(-25,1)	(4,1)	(-1,3)	(-10,12)	
L1D 14>	(6,69)	(-314,90)	(-278,84)	(-25,41)	(-124,93)	(78,99)	(-36,52)	(-11,56)	(176,61)	(12,91)	(-7,60)	(5,109)	(75,1)	(-30,97)	(-40,60)	(-156,74)	
L1D 15>	(-12,2)	(-10,1)	(-13,1)	(-127,6)	(-3,6)	(47,6)	(12,1)	(65,5)	(67,4)	(83,4)	(69,5)	(75,3)	(11,115)	(0,7)	(81,5)	(-25,1)	
L1D 16>	(-88,103)	(-12,4)	(4,2)	(-170,1)	(-34,114)	(-96,110)	(-18,28)	(-138,4)	(-2,31)	(64,7)	(-25,18)	(-10,44)	(13,24)	(-4,106)	(-11,9)	(16,13)	
L1D 17>	(31,16)	(-17,104)	(-20,1)	(145,2)	(12,1)	(6,4)	(-11,61)	(-3,11)	(1,4)	(138,6)	(19,21)	(126,5)	(142,7)	(78,4)	(20,35)	(-10,21)	
L1D 18>	(-29,14)	(-10,2)	(-5,1)	(-19,5)	(-20,46)	(-7,10)	(8,7)	(70,14)	(-12,31)	(-58,8)	(202,18)	(72,15)	(-92,11)	(-9,114)	(133,4)	(-88,17)	
L1D 19>	(13,1)	(-17,124)	(8,2)	(-5,2)	(-4,12)	(44,33)	(12,5)	(-22,2)	(-19,0)	(-1,0)	(-32,2)	(-303,9)	(-28,1)	(1,6)	(-18,1)	(-235,0)	
L1D 20>	(38,68)	(-19,0)	(-36,15)	(-15,11)	(138,18)	(-22,30)	(4,18)	(-24,7)	(13,10)	(304,1)	(-60,0)	(-40,0)	(-12,17)	(-56,2)	(10,2)	(-2,4)	
L1D 21>	(-19,7)	(-25,0)	(-1,0)	(-7,0)	(-17,8)	(-18,4)	(9,1)	(-16,0)	(-15,0)	(20,5)	(-26,87)	(-14,0)	(-27,22)	(-13,14)	(-23,0)	(-21,1)	
L1D 22>	(70,1)	(133,14)	(-290,16)	(367,28)	(-18,34)	(242,47)	(-23,112)	(369,29)	(2,22)	(-13,31)	(-17,7)	(-1,5)	(267,9)	(73,6)	(159,41)	(137,13)	
L1D 23>	(-5,0)	(-16,0)	(11,0)	(-22,126)	(-23,0)	(-27,0)	(-17,30)	(-18,45)	(-19,43)	(-24,2)	(-9,54)	(-2,0)	(0,0)	(-25,1)	(-178,0)	(-77,2)	
L1D 24>	(-52,15)	(98,46)	(302,1)	(122,2)	(3,35)	(-26,8)	(70,6)	(158,68)	(-5,6)	(-18,7)	(-17,8)	(-9,10)	(290,69)	(28,22)	(6,30)	(72,37)	
L1D 25>	(-20,22)	(-21,4)	(-34,12)	(2,27)	(-8,18)	(-4,1)	(-45,2)	(94,1)	(11,0)	(-77,41)	(-6,91)	(-17,88)	(-64,43)	(-18,14)	(-19,45)	(-25,1)	
L1D 26>	(37,75)	(-35,0)	(-228,6)	(-154,6)	(-200,0)	(-96,0)	(110,0)	(-30,0)	(-272,0)	(42,0)	(-22,0)	(-46,0)	(-1,7)	(22,0)	(-20,0)	(-44,0)	
L1D 27>	(-34,7)	(-5,0)	(-24,0)	(-43,73)	(-30,0)	(-9,7)	(-36,4)	(70,0)	(-23,0)	(4,0)	(-31,5)	(-37,6)	(-27,0)	(-11,0)	(-7,0)	(-25,5)	
L1D 28>	(58,14)	(44,87)	(-11,13)	(-35,12)	(-24,15)	(66,14)	(-2,26)	(-18,15)	(2,2)	(184,11)	(-21,63)	(-80,3)	(236,15)	(-74,0)	(-19,8)	(-278,2)	
L1D 29>	(-20,34)	(-22,8)	(-21,91)	(-4,0)	(2,0)	(-12,0)	(-6,3)	(-11,0)	(-13,27)	(-19,5)	(1,0)	(-18,1)	(-3,2)	(-17,0)	(-29,0)	(-32,0)	
L1D 30>	(210,1)	(66,44)	(232,2)	(-25,1)	(145,2)	(-43,78)	(-29,1)	(-28,1)	(-24,13)	(-2,1)	(-60,24)	(-40,4)	(-170,1)	(-136,2)	(-66,1)	(-21,8)	
L1D 31>	(-322,1)	(-242,83)	(-31,0)	(-29,0)	(44,2)	(-5,0)	(-21,62)	(-12,2)	(-3,86)	(-61,1)	(-185,96)	(-16,1)	(-303,4)	(-7,8)	(-43,7)	(15,0)	
L1D 32>	(-118,1)	(290,1)	(0,5)	(-228,5)	(-14,2)	(2,4)	(-218,3)	(18,86)	(-16,7)	(-292,2)	(-32,0)	(138,0)	(-272,4)	(20,1)	(-154,83)	(-12,12)	
L1D 33>	(-17,85)	(-3,1)	(-33,0)	(0,0)	(6,0)	(-1,0)	(-16,0)	(-32,0)	(38,0)	(5,0)	(8,0)	(1,0)	(3,0)	(-19,4)	(-18,0)	(7,0)	
L1D 34>	(50,0)	(-34,81)	(238,11)	(15,2)	(-152,0)	(10,10)	(-20,0)	(41,10)	(-40,0)	(38,0)	(42,1)	(1,0)	(-312,1)	(-12,11)	(-350,1)	(8,0)	
L1D 35>	(-19,6)	(-43,42)	(-7,0)	(-35,1)	(-21,71)	(-31,61)	(-235,2)	(-32,0)	(-1,0)	(-37,0)	(-3,0)	(0,0)	(44,0)	(7,0)	(-171,80)	(6,0)	
L1D 36>	(-38,103)	(-88,126)	(-234,1)	(-212,3)	(-60,107)	(-34,1)	(46,11)	(-166,1)	(-200,1)	(-256,12)	(228,57)	(-206,1)	(56,3)	(-4,2)	(-308,4)	(-62,91)	
L1D 37>	(-63,5)	(-59,0)	(-78,0)	(-81,0)	(-37,0)	(15,0)	(-34,3)	(0,0)	(-38,0)	(-1,0)	(1,0)	(-72,104)	(-42,0)	(-75,11)	(-32,0)	(-67,0)	
L1D 38>	(-63,34)	(-79,3)	(-50,9)	(-322,7)	(136,9)	(11,19)	(16,9)	(48,10)	(-40,4)	(-30,7)	(38,9)	(-25,85)	(37,3)	(-37,1)	(-104,2)	(-24,2)	
L1D 39>	(-36,1)	(-39,43)	(-194,1)	(-5,1)	(10,9)	(0,8)	(-8,4)	(-7,5)	(3,1)	(-166,16)	(-4,2)	(-219,2)	(-1,1)	(-81,97)	(1,1)	(-32,1)	
L1D 40>	(2,1)	(-36,4)	(-25,99)	(-236,1)	(80,1)	(-278,0)	(-18,0)	(1,0)	(-43,1)	(38,0)	(142,0)	(-4,0)	(250,1)	(112,0)	(316,0)	(-228,12)	
L1D 41>	(-346,120)	(-35,0)	(-8,0)	(-41,2)	(1,0)	(-196,0)	(-1,0)	(-7,0)	(-36,0)	(-5,0)	(0,0)	(-3,0)	(-2,0)	(-11,0)	(-32,0)	(3,0)	
L1D 42>	(-186,1)	(-30,8)	(248,0)	(-262,0)	(-16,2)	(-35,50)	(-24,0)	(58,1)	(106,15)	(-22,7)	(40,12)	(-38,21)	(8,2)	(37,99)	(-96,2)	(-12,8)	
L1D 43>	(-198,1)	(38,2)	(-43,70)	(-11,15)	(-289,2)	(-37,9)	(-7,14)	(-9,15)	(-288,0)	(-4,11)	(-5,1)	(0,22)	(-34,10)	(-6,22)	(99,20)	(-84,2)	
L1D 44>	(-35,37)	(-65,82)	(-81,4)	(-240,0)	(-10,0)	(128,23)	(204,26)	(-63,30)	(-14,1)	(0,9)	(-96,0)	(-272,0)	(-62,6)	(-122,19)	(-58,66)	(-346,0)	
L1D 45>	(-44,70)	(11,54)	(84,34)	(1,3)	(-2,38)	(9,2)	(2,23)	(0,13)	(-45,40)	(-42,6)	(-346,6)	(-29,3)	(7,6)	(45,4)	(-48,6)	(-1,3)	
L1D 46>	(-280,52)	(-347,1)	(-47,0)	(-118,1)	(-32,1)	(98,14)	(81,104)	(-172,9)	(-58,0)	(-228,0)	(-64,1)	(-152,0)	(-45,0)	(-54,0)	(-82,0)	(6,4)	
L1D 47>	(83,0)	(11,21)	(-49,118)	(2,1)	(195,0)	(0,33)	(55,0)	(-50,12)	(-37,15)	(-46,28)	(-48,14)	(15,1)	(151,0)	(98,1)	(-11,0)	(-45,1)	
L1D 48>	(194,69)	(-58,21)	(12,1)	(-30,75)	(-120,2)	(-118,57)	(190,7)	(88,13)	(48,80)	(-168,80)	(-50,3)	(-242,10)	(-298,36)	(28,5)	(232,8)	(-66,67)	
L1D 49>	(23,5)	(-45,0)	(93,0)	(95,0)	(-54,0)	(-6,0)	(-118,0)	(18,0)	(-5,0)	(0,0)	(15,0)	(-137,0)	(1,121)	(35,0)	(-53,0)	(17,0)	
L1D 50>	(-166,0)	(-48,0)	(-30,0)	(-136,0)	(-284,0)	(-5,0)	(-186,0)	(-10,97)	(86,4)	(-188,4)	(-175,0)	(-182,1)	(-174,70)	(-49,0)	(120,11)	(26,3)	
L1D 51>	(-52,26)	(-50,123)	(93,82)	(-5,26)	(-53,65)	(-43,5)	(-120,9)	(-81,3)	(-30,54)	(-303,5)	(-149,4)	(17,0)	(-95,1)	(-2,0)	(1,0)	(1,0)	
L1D 52>	(-6,43)	(-84,10)	(-164,10)	(-51,7)	(24,73)	(2,62)	(-44,86)	(-30,34)	(-345,6)	(-174,1)	(-10,7)	(-5,60)	(226,16)	(-26,2)	(-20,5)	(-118,4)	
L1D 53>	(-52,123)	(-53,0)	(-13,1)	(0,0)	(1,0)	(1,0)	(1,0)	(1,0)	(1,0)	(1,0)	(1,0)	(1,0)	(1,0)	(1,0)	(1,0)	(1,0)	
L1D 54>	(-109,104)	(-20,0)	(-78,0)	(-158,6)	(-4,0)	(-8,0)	(152,0)	(-2,0)	(10,0)	(-56,0)	(-218,0)	(-220,0)	(8,0)	(-202,0)	(-194,0)	(-6,0)	
L1D 55>	(-54,20)	(-11,37)	(148,7)	(195,26)	(28,24)	(-6,97)	(0,23)	(-5,109)	(-71,23)	(25,11)	(-51,1)	(-49,6)	(-53,7)	(-55,7)	(-30,29)	(24,6)	
L1D 56>	(10,1)	(-8,0)	(-186,118)	(-156,0)	(152,2)	(-54,3)	(-40,92)	(-2,8)	(-66,0)	(-12,0)	(-18,1)	(-22,1)	(-76,2)	(-16,1)	(-118,1)	(60,0)	
L1D 57>	(-12,0)	(-11,5)	(-43,0)	(-56,0)	(-82,98)	(-104,12)	(-1,1)	(-77,0)	(-64,0)	(-37,0)	(-2,2)	(1,0)	(1,0)	(1,0)	(1,0)	(1,0)	
L1D 58>	(-74,6)	(-81,1)	(-182,16)	(-20,0)	(219,0)	(36,16)	(-76,69)	(1,28)	(50,0)	(-270,0)	(136,1)	(-50,0)	(0,7)	(-68,1)	(48,0)	(-208,0)	
L1D 59>	(2,1)	(-60,0)	(0,1)	(-58,40)	(-66,21)	(-268,14)	(-63,27)	(-65,6)	(-75,118)	(-72,11)	(1,0)	(1,0)	(1,0)	(1,0)	(1,0)	(1,0)	
L1D 60>	(-314,0)	(-66,64)	(6,15)	(-48,24)	(-270,0)	(4,38)	(146,0)	(-246,0)	(26,4)	(-24,63)	(-242,0)	(-4,1)	(-100,1)	(-38,23)	(-186,3)	(14,19)	
L1D 61>	(-49,1)	(-183,16)	(-5,8)	(-60,1)	(1,0)	(-1,1)	(-48,0)	(146,97)	(-6,7)	(-2,2)	(0,1)	(1,0)	(1,0)	(1,0)	(1,0)	(1,0)	
L1D 62>	(186,106)	(-58,1)	(-67,2)	(-114,5)	(-96,1)	(-212,10)	(-112,1)	(164,1)	(-50,2)	(-49,7)	(-184,65)	(-154,3)	(-16,6)	(-118,2)	(-48,5)	(-162,5)	
L1D 63>	(-247,3)	(-275,0)	(-61,0)	(-63,0)	(-80,0)	(-81,13)	(-72,20)	(-76,0)	(-74,0)	(0,0)	(-75,16)	(-37,0)	(-58,81)	(-38,0)	(-79,1)	(-78,0)	
L1D 64>	(15,1)	(-14,0)	(8,103)	(39,1)	(-69,5)	(-70,11)	(48,95)	(-2,94)	(-24,0)	(10,4)	(118,0)	(-74,0)	(-116,1)	(232,0)	(-62,2)	(-212,87)	
L1D 65>	(-67,96)	(-100,0)	(-219,73)	(-55,8)	(-66,6)	(-63,69)	(-97,12)	(0,0)	(-109,0)	(-99,0)	(-75,0)	(1,0)	(1,0)	(1,0)	(1,0)	(1,0)	
L1D 66>	(-72,68)	(122,11)	(112,92)	(-58,76)	(-40,94)	(-18,77)	(24,71)	(-92,110)	(4,12)	(-138,87)	(116,1)	(-54,14)	(42,11)	(226,98)	(-210,106)	(-196,50)	
L1D 67>	(-69,85)	(-2,122)	(2,6)	(-3,0)	(-68,2)	(318,1)	(0,0)	(6,3)	(-244,8)	(-57,19)	(-55,0)	(-66,0)	(-95,0)	(-65,0)	(137,0)	(-109,0)	
L1D 68>	(-250,1)	(-70,1)	(226,7)	(302,113)	(240,6)	(72,2)	(118,8)	(-92,9)	(-74,105)	(102,3)	(38,0)	(-76,2)	(-290,34)	(-222,4)	(31,1)	(-62,2)	
L1D 69>	(-72,97)	(223,0)	(-57,11)	(-79,2)	(-12,0)	(1,0)	(1,0)	(1,0)	(1,0)	(1,0)	(1,0)	(1,0)	(1,0)	(1,0)	(1,0)	(1,0)	
L1D 70>	(-32,93)	(-275,104)	(-210,6)	(9,3)	(-2,1)	(-98,13)	(-180,57)	(102,105)	(-40,8)	(-150,2)	(-88,7)	(-84,15)	(-134,4)	(2,3)	(-94,5)	(-70,2)	
L1D 71>	(-38,23)	(-14,1)	(-80,9)	(2,1)	(-63,65)	(-1,113)	(166,99)	(-5,7)	(-62,94)	(-70,1)	(-6,2)	(-40,0)	(1,0)	(1,0)	(1,0)	(1,0)	
L1D 72>	(-86,7)	(-63,95)	(180,1)	(-80,10)	(112,1)	(-75,24)	(-38,9)	(-78,0)	(-23,22)	(-8,0)	(-122,8)	(-79,2)	(240,6)	(102,0)	(16,0)	(-44,16)	
L1D 73>	(-67,1)	(-23,88)	(-89,0)	(-76,10)	(-240,0)	(-71,0)	(-74,0)	(-62,0)	(1,0)	(1,0)	(1,0)	(1,0)	(1,0)	(1,0)	(1,0)	(1,0)	
L1D 74>	(160,15)	(16,79)	(146,0)	(-290,0)	(-64,0)	(34,2)	(4,0)	(-316,39)	(-96,2)	(-194,0)	(-100,0)	(-346,1)	(30,0)	(-79,0)	(-63,39)	(-272,0)	
L1D 75>	(60,113)	(-69,1)	(-77,1)	(-25,0)	(244,0)	(-38,82)	(-78,0)	(-346,12)	(-79,83)	(-63,20)	(-58,0)	(2,0)	(-65,0)	(1,0)	(1,0)	(1,0)	
L1D 76>	(-106,4)	(-190,0)	(-102,0)	(-238,0)	(30,0)	(-72,0)	(-29,0)	(92,0)	(-78,4)	(-30,5)	(-81,103)	(-63,0)	(-232,0)	(-74,0)	(-32,0)	(-312,0)	
L1D 77>	(2,119)	(-75,13)	(-1,11)	(-72,21)	(0,1)	(-79,30)	(-62,95)	(-37,85)	(-5,3)	(1,0)	(1,0)	(1,0)	(1,0)	(1,0)	(1,0)	(1,0)	
L1D 78>	(-119,96)	(-292,94)	(260,2)	(-76,54)	(-2,97)	(-180,15)	(32,1)	(170,4)	(152,2)	(24,15)	(-66,3)	(-82,9)	(102,13)	(-282,16)	(-89,4)	(-44,1)	
L1D 79>	(-75,25)	(-12,0)	(-24,1)	(-74,0)	(-127,2)	(-37,57)	(-79,1)	(-58,2)	(-72,77)	(-5,0)	(-63,3)	(-80,0)	(-81,0)	(-65,0)	(-38,2)	(1,0)	
L1D 80>	(-81,124)	(-67,0)	(-98,0)	(124,0)	(246,5)	(-216,0)	(-85,0)	(-32,7)	(-162,0)	(8,1)	(-106,0)	(-46,7)	(154,5)	(-194,0)	(-66,0)	(14,6)	
L1D 81>	(-82,111)	(-81,23)	(-84,15)	(-79,1)	(2,0)	(-80,0)	(-75,9)	(-72,6)	(-71,1)	(-63,0)	(-127,0)	(0,1)	(1,0)	(1,0)	(1,0)	(1,0)	
L1D 82>	(-78,1)	(-69,8)	(-82,115)	(24,111)	(14,71)	(-112,9)	(-110,4)	(-184,8)	(-80,20)	(156,2)	(-280,15)	(-46,5)	(-290,5)	(162,4)	(-26,90)	(-68,4)	
L1D 83>	(-85,86)	(-83,106)	(11,31)	(60,0)	(-72,1)	(-73,6)	(-86,5)	(-74,0)	(-28,0)	(218,0)	(1,0)	(1,0)	(1,0)	(1,0)	(1,0)	(1,0)	
L1D 84>	(164,29)	(-98,2)	(-79,1)	(-83,93)	(-57,0)	(-230,28)	(-102,6)	(210,0)	(-88,6)	(-84,4)	(224,19)	(88,2)	(-134,20)	(138,0)	(-72,0)	(-90,1)	
L1D 85>	(-108,0)	(-103,79)	(236,1)	(-105,0)	(1,0)	(-65,0)	(2,15)	(-92,5)	(220,2)	(-84,0)	(-85,0)	(1,0)	(1,0)	(1,0)	(1,0)	(1,0)	
L1D 86>	(-18,67)	(-88,0)	(-106,0)	(-104,1)	(-48,0)	(-86,0)	(8,0)	(-308,0)	(-230,1)	(-246,2)	(-58,5)	(-100,0)	(-258,4)	(-66,0)	(120,0)	(232,1)	
L1D 87>	(-144,93)	(6,0)	(0,3)	(-100,0)	(2,0)	(32,0)	(1,0)	(1,0)	(1,0)	(1,0)	(1,0)	(1,0)	(1,0)	(1,0)	(1,0)	(1,0)	
L1D 88>	(-28,2)	(10,1)	(-32,0)	(132,3)	(-40,0)	(-184,34)	(-242,1)	(-74,3)	(-230,1)	(-258,1)	(-172,3)	(4,0)	(84,19)	(18,75)	(-102,15)	(88,17)	
L1D 89>	(-76,1)	(0,0)	(6,108)	(-5,0)	(-3,0)	(-82,3)	(60,0)	(-99,0)	(-105,0)	(1,0)	(1,0)	(1,0)	(1,0)	(1,0)	(1,0)	(1,0)	
[...]
L1D 483>	(1,0)	(1,0)	(1,0)	(1,0)	(1,0)	(1,0)	(1,0)	(1,0)	(1,0)	(1,0)	(1,0)	(1,0)	(1,0)	(1,0)	(1,0)	(1,0)	
L1D 484>	(1,0)	(1,0)	(1,0)	(1,0)	(1,0)	(1,0)	(1,0)	(1,0)	(1,0)	(1,0)	(1,0)	(1,0)	(1,0)	(1,0)	(1,0)	(1,0)	
L1D 485>	(1,0)	(1,0)	(1,0)	(1,0)	(1,0)	(1,0)	(1,0)	(1,0)	(1,0)	(1,0)	(1,0)	(1,0)	(1,0)	(1,0)	(1,0)	(1,0)	
L1D 486>	(1,0)	(1,0)	(1,0)	(1,0)	(1,0)	(1,0)	(1,0)	(1,0)	(1,0)	(1,0)	(1,0)	(1,0)	(1,0)	(1,0)	(1,0)	(1,0)	
L1D 487>	(1,0)	(1,0)	(1,0)	(1,0)	(1,0)	(1,0)	(1,0)	(1,0)	(1,0)	(1,0)	(1,0)	(1,0)	(1,0)	(1,0)	(1,0)	(1,0)	
L1D 488>	(1,0)	(1,0)	(1,0)	(1,0)	(1,0)	(1,0)	(1,0)	(1,0)	(1,0)	(1,0)	(1,0)	(1,0)	(1,0)	(1,0)	(1,0)	(1,0)	
L1D 489>	(1,0)	(1,0)	(1,0)	(1,0)	(1,0)	(1,0)	(1,0)	(1,0)	(1,0)	(1,0)	(1,0)	(1,0)	(1,0)	(1,0)	(1,0)	(1,0)	
L1D 490>	(1,0)	(1,0)	(1,0)	(1,0)	(1,0)	(1,0)	(1,0)	(1,0)	(1,0)	(1,0)	(1,0)	(1,0)	(1,0)	(1,0)	(1,0)	(1,0)	
L1D 491>	(1,0)	(1,0)	(1,0)	(1,0)	(1,0)	(1,0)	(1,0)	(1,0)	(1,0)	(1,0)	(1,0)	(1,0)	(1,0)	(1,0)	(1,0)	(1,0)	
L1D 492>	(1,0)	(1,0)	(1,0)	(1,0)	(1,0)	(1,0)	(1,0)	(1,0)	(1,0)	(1,0)	(1,0)	(1,0)	(1,0)	(1,0)	(1,0)	(1,0)	
L1D 493>	(1,0)	(1,0)	(1,0)	(1,0)	(1,0)	(1,0)	(1,0)	(1,0)	(1,0)	(1,0)	(1,0)	(1,0)	(1,0)	(1,0)	(1,0)	(1,0)	
L1D 494>	(1,0)	(1,0)	(1,0)	(1,0)	(1,0)	(1,0)	(1,0)	(1,0)	(1,0)	(1,0)	(1,0)	(1,0)	(1,0)	(1,0)	(1,0)	(1,0)	
L1D 495>	(1,0)	(1,0)	(1,0)	(1,0)	(1,0)	(1,0)	(1,0)	(1,0)	(1,0)	(1,0)	(1,0)	(1,0)	(1,0)	(1,0)	(1,0)	(1,0)	
L1D 496>	(1,0)	(1,0)	(1,0)	(1,0)	(1,0)	(1,0)	(1,0)	(1,0)	(1,0)	(1,0)	(1,0)	(1,0)	(1,0)	(1,0)	(1,0)	(1,0)	
L1D 497>	(-2,1)	(1,0)	(1,0)	(1,0)	(1,0)	(1,0)	(1,0)	(1,0)	(1,0)	(1,0)	(1,0)	(1,0)	(1,0)	(1,0)	(1,0)	(1,0)	
L1D 498>	(1,0)	(1,0)	(1,0)	(1,0)	(1,0)	(1,0)	(1,0)	(1,0)	(1,0)	(1,0)	(1,0)	(1,0)	(1,0)	(1,0)	(1,0)	(1,0)	
L1D 499>	(1,0)	(1,0)	(1,0)	(1,0)	(1,0)	(1,0)	(1,0)	(1,0)	(1,0)	(1,0)	(1,0)	(1,0)	(1,0)	(1,0)	(1,0)	(1,0)	
L1D 500>	(1,0)	(1,0)	(1,0)	(1,0)	(1,0)	(1,0)	(1,0)	(1,0)	(1,0)	(1,0)	(1,0)	(1,0)	(1,0)	(1,0)	(1,0)	(1,0)	
L1D 501>	(1,0)	(1,0)	(1,0)	(1,0)	(1,0)	(1,0)	(1,0)	(1,0)	(1,0)	(1,0)	(1,0)	(1,0)	(1,0)	(1,0)	(1,0)	(1,0)	
L1D 502>	(1,0)	(1,0)	(1,0)	(1,0)	(1,0)	(1,0)	(1,0)	(1,0)	(1,0)	(1,0)	(1,0)	(1,0)	(1,0)	(1,0)	(1,0)	(1,0)	
L1D 503>	(2,11)	(0,1)	(1,0)	(1,0)	(1,0)	(1,0)	(1,0)	(1,0)	(1,0)	(1,0)	(1,0)	(1,0)	(1,0)	(1,0)	(1,0)	(1,0)	
L1D 504>	(2,12)	(0,6)	(-2,3)	(1,0)	(1,0)	(1,0)	(1,0)	(1,0)	(1,0)	(1,0)	(1,0)	(1,0)	(1,0)	(1,0)	(1,0)	(1,0)	
L1D 505>	(2,73)	(0,13)	(1,1)	(-2,1)	(1,0)	(1,0)	(1,0)	(1,0)	(1,0)	(1,0)	(1,0)	(1,0)	(1,0)	(1,0)	(1,0)	(1,0)	
L1D 506>	(1,0)	(1,0)	(1,0)	(1,0)	(1,0)	(1,0)	(1,0)	(1,0)	(1,0)	(1,0)	(1,0)	(1,0)	(1,0)	(1,0)	(1,0)	(1,0)	
L1D 507>	(1,0)	(1,0)	(1,0)	(1,0)	(1,0)	(1,0)	(1,0)	(1,0)	(1,0)	(1,0)	(1,0)	(1,0)	(1,0)	(1,0)	(1,0)	(1,0)	
L1D 508>	(1,0)	(1,0)	(1,0)	(1,0)	(1,0)	(1,0)	(1,0)	(1,0)	(1,0)	(1,0)	(1,0)	(1,0)	(1,0)	(1,0)	(1,0)	(1,0)	
L1D 509>	(1,0)	(1,0)	(1,0)	(1,0)	(1,0)	(1,0)	(1,0)	(1,0)	(1,0)	(1,0)	(1,0)	(1,0)	(1,0)	(1,0)	(1,0)	(1,0)	
L1D 510>	(1,0)	(1,0)	(1,0)	(1,0)	(1,0)	(1,0)	(1,0)	(1,0)	(1,0)	(1,0)	(1,0)	(1,0)	(1,0)	(1,0)	(1,0)	(1,0)	
L1D 511>	(1,0)	(1,0)	(1,0)	(1,0)	(1,0)	(1,0)	(1,0)	(1,0)	(1,0)	(1,0)	(1,0)	(1,0)	(1,0)	(1,0)	(1,0)	(1,0)	

L2C -64>	(1,231)	(-1,167)	(2,140)	(20,22)	(3,37)	(-8,1)	(-22,32)	(22,19)	(-21,40)	(-44,51)	(21,9)	(4,16)	(-2,112)	(-3,30)	(0,50)	(43,18)	
L2C -63>	(42,24)	(1,57)	(2,3)	(3,4)	(41,6)	(10,1)	(19,1)	(22,3)	(51,1)	(44,2)	(1,0)	(1,0)	(1,0)	(1,0)	(1,0)	(1,0)	
L2C -62>	(1,10)	(-1,2)	(3,3)	(2,6)	(44,3)	(1,0)	(1,0)	(1,0)	(1,0)	(1,0)	(1,0)	(1,0)	(1,0)	(1,0)	(1,0)	(1,0)	
L2C -61>	(1,7)	(-1,1)	(-2,2)	(44,1)	(1,0)	(1,0)	(1,0)	(1,0)	(1,0)	(1,0)	(1,0)	(1,0)	(1,0)	(1,0)	(1,0)	(1,0)	
L2C -60>	(2,1)	(1,7)	(3,1)	(1,0)	(1,0)	(1,0)	(1,0)	(1,0)	(1,0)	(1,0)	(1,0)	(1,0)	(1,0)	(1,0)	(1,0)	(1,0)	
L2C -59>	(2,3)	(1,9)	(22,2)	(8,5)	(24,1)	(7,1)	(16,1)	(28,4)	(15,2)	(21,2)	(58,2)	(29,3)	(1,0)	(1,0)	(1,0)	(1,0)	
L2C -58>	(1,23)	(25,2)	(23,3)	(49,2)	(44,3)	(22,11)	(43,10)	(17,1)	(21,2)	(15,3)	(54,1)	(7,3)	(51,1)	(8,1)	(16,1)	(52,1)	
L2C -57>	(50,0)	(1,186)	(28,0)	(8,0)	(22,0)	(30,0)	(36,0)	(16,0)	(1,0)	(1,0)	(1,0)	(1,0)	(1,0)	(1,0)	(1,0)	(1,0)	
L2C -56>	(27,3)	(1,13)	(28,1)	(2,1)	(7,9)	(14,4)	(22,5)	(21,26)	(25,1)	(50,10)	(20,3)	(-1,15)	(49,5)	(19,1)	(42,2)	(55,1)	
L2C -55>	(-1,7)	(41,1)	(1,7)	(21,7)	(20,13)	(-2,57)	(27,1)	(50,1)	(-3,2)	(6,14)	(5,7)	(13,3)	(7,1)	(56,2)	(48,2)	(28,1)	
L2C -54>	(1,13)	(22,10)	(26,26)	(2,6)	(7,2)	(54,3)	(23,3)	(15,5)	(3,4)	(63,1)	(45,1)	(35,5)	(9,1)	(32,1)	(-2,2)	(-9,1)	
L2C -53>	(63,76)	(2,28)	(7,11)	(1,12)	(21,21)	(5,9)	(35,98)	(26,10)	(-9,26)	(15,59)	(8,1)	(28,2)	(0,45)	(25,5)	(32,7)	(9,5)	
L2C -52>	(1,89)	(22,34)	(30,4)	(0,4)	(8,4)	(13,20)	(27,2)	(26,16)	(43,8)	(42,3)	(51,2)	(28,14)	(45,17)	(15,6)	(44,3)	(36,5)	
L2C -51>	(1,15)	(22,1)	(8,14)	(0,58)	(16,13)	(14,77)	(-6,85)	(43,5)	(29,9)	(20,4)	(51,27)	(-7,17)	(15,138)	(-8,18)	(6,5)	(7,43)	
L2C -50>	(-1,82)	(44,52)	(1,224)	(7,51)	(6,23)	(14,74)	(28,33)	(21,96)	(22,41)	(29,35)	(42,24)	(36,12)	(43,1)	(-2,5)	(15,61)	(13,4)	
L2C -49>	(-1,24)	(0,9)	(43,32)	(-6,6)	(21,19)	(14,64)	(27,1)	(6,19)	(7,11)	(15,10)	(35,6)	(1,34)	(20,5)	(28,4)	(-8,6)	(42,5)	
L2C -48>	(33,3)	(13,6)	(11,6)	(22,5)	(43,45)	(7,3)	(9,5)	(42,11)	(-1,10)	(15,10)	(-2,10)	(27,2)	(-14,2)	(12,1)	(1,14)	(-3,3)	
L2C -47>	(1,1)	(0,16)	(21,6)	(22,6)	(46,1)	(12,2)	(-2,2)	(-1,2)	(14,1)	(40,1)	(16,1)	(41,1)	(5,1)	(27,1)	(1,0)	(1,0)	
L2C -46>	(1,29)	(28,1)	(-1,1)	(22,38)	(0,5)	(21,2)	(43,32)	(3,1)	(44,171)	(2,2)	(23,8)	(49,1)	(46,1)	(27,0)	(53,4)	(48,1)	
L2C -45>	(43,157)	(22,127)	(44,41)	(1,105)	(0,3)	(21,16)	(-1,6)	(53,1)	(46,6)	(52,0)	(10,0)	(51,0)	(2,0)	(42,0)	(23,0)	(8,0)	
L2C -44>	(22,112)	(-8,1)	(42,7)	(1,206)	(43,236)	(44,24)	(23,14)	(21,28)	(0,5)	(-1,8)	(-7,1)	(2,1)	(7,1)	(45,29)	(50,0)	(41,0)	
L2C -43>	(42,47)	(21,165)	(44,60)	(22,243)	(43,77)	(1,98)	(29,1)	(23,7)	(-1,72)	(2,1)	(-7,0)	(0,0)	(20,1)	(45,4)	(36,0)	(14,0)	
L2C -42>	(43,79)	(1,32)	(41,1)	(21,138)	(-1,96)	(20,14)	(22,58)	(-7,0)	(-2,2)	(45,2)	(42,7)	(0,3)	(44,7)	(40,0)	(-21,2)	(63,0)	
L2C -41>	(42,53)	(1,130)	(19,49)	(-1,10)	(-2,145)	(-3,6)	(12,2)	(21,8)	(20,90)	(22,60)	(43,8)	(40,2)	(44,2)	(35,1)	(0,28)	(13,17)	
L2C -40>	(12,20)	(-1,55)	(1,13)	(-6,6)	(-3,119)	(20,18)	(41,48)	(-2,39)	(19,67)	(21,39)	(13,3)	(43,5)	(42,2)	(0,24)	(11,3)	(23,4)	
L2C -39>	(1,203)	(43,1)	(2,0)	(-1,5)	(22,0)	(63,7)	(-3,0)	(20,0)	(1,0)	(1,0)	(1,0)	(1,0)	(1,0)	(1,0)	(1,0)	(1,0)	
L2C -38>	(-6,19)	(1,10)	(2,2)	(37,3)	(8,11)	(63,18)	(21,3)	(-3,32)	(-5,14)	(10,3)	(-7,1)	(22,14)	(-8,4)	(43,14)	(20,7)	(16,3)	
L2C -37>	(43,17)	(30,1)	(-21,21)	(1,47)	(36,53)	(22,19)	(-1,18)	(-20,13)	(15,8)	(-22,13)	(-14,20)	(2,6)	(29,4)	(7,16)	(-15,5)	(10,5)	
L2C -36>	(-19,51)	(21,36)	(-1,153)	(1,235)	(2,34)	(-22,27)	(22,34)	(37,33)	(-21,150)	(29,41)	(35,66)	(7,19)	(15,24)	(31,3)	(30,43)	(-20,43)	
L2C -35>	(1,126)	(14,38)	(-9,8)	(-7,20)	(-1,80)	(8,10)	(-22,66)	(-21,32)	(-8,27)	(-15,1)	(21,120)	(29,38)	(42,5)	(6,14)	(0,6)	(-20,21)	
L2C -34>	(1,20)	(20,20)	(21,25)	(-1,135)	(9,1)	(-4,205)	(-9,64)	(19,11)	(6,34)	(-5,72)	(-21,26)	(29,52)	(27,14)	(-2,29)	(28,17)	(25,75)	
L2C -33>	(1,5)	(11,17)	(25,9)	(-15,7)	(29,12)	(21,7)	(-7,23)	(12,21)	(6,4)	(-8,66)	(5,35)	(-10,99)	(-5,79)	(-4,4)	(-9,43)	(24,2)	
L2C -32>	(29,2)	(24,2)	(-21,33)	(25,3)	(32,9)	(2,7)	(1,9)	(-22,2)	(-5,1)	(31,2)	(5,2)	(-1,6)	(40,1)	(27,1)	(3,1)	(-17,1)	
L2C -31>	(1,15)	(36,5)	(14,7)	(29,48)	(25,8)	(43,21)	(23,9)	(-13,7)	(-21,8)	(-1,45)	(27,8)	(3,6)	(-22,16)	(-6,1)	(21,9)	(24,4)	
L2C -30>	(1,58)	(14,45)	(-6,13)	(15,4)	(-1,132)	(-13,5)	(36,5)	(22,11)	(-20,6)	(-14,1)	(23,8)	(16,25)	(4,2)	(8,8)	(20,3)	(-5,8)	
L2C -29>	(9,16)	(29,7)	(36,9)	(15,76)	(8,58)	(44,1)	(30,7)	(1,134)	(7,18)	(-21,75)	(2,11)	(-1,136)	(-22,20)	(-6,17)	(0,15)	(-8,6)	
L2C -28>	(-1,43)	(21,216)	(20,10)	(15,35)	(-9,7)	(-15,37)	(7,18)	(-21,20)	(6,12)	(8,4)	(14,66)	(1,29)	(-8,9)	(35,6)	(19,1)	(-22,58)	
L2C -27>	(26,13)	(9,6)	(6,19)	(19,8)	(-21,19)	(21,44)	(-15,12)	(-2,1)	(5,6)	(-1,57)	(-22,11)	(3,4)	(27,14)	(-8,5)	(13,18)	(2,9)	
L2C -26>	(1,35)	(0,1)	(-22,14)	(33,7)	(43,6)	(14,26)	(19,46)	(2,10)	(-21,15)	(-1,30)	(-13,14)	(26,7)	(4,4)	(20,15)	(21,21)	(12,4)	
L2C -25>	(22,11)	(43,7)	(21,8)	(1,41)	(-1,13)	(6,33)	(-21,5)	(-22,6)	(25,20)	(12,11)	(0,67)	(7,4)	(9,30)	(23,1)	(11,4)	(3,3)	
L2C -24>	(22,176)	(21,66)	(43,180)	(17,1)	(-21,245)	(1,147)	(9,4)	(-20,3)	(-22,152)	(-19,1)	(0,39)	(44,7)	(24,1)	(3,2)	(2,5)	(-2,2)	
L2C -23>	(2,5)	(44,30)	(22,88)	(24,18)	(0,20)	(43,125)	(21,86)	(45,2)	(-20,2)	(1,152)	(-1,28)	(-22,199)	(42,6)	(-21,145)	(15,2)	(46,1)	
L2C -22>	(-21,103)	(21,61)	(-22,52)	(22,128)	(1,251)	(43,111)	(-20,2)	(0,6)	(42,8)	(23,27)	(20,1)	(-1,9)	(44,40)	(-23,1)	(-2,1)	(2,7)	
L2C -21>	(-21,25)	(43,48)	(42,24)	(2,2)	(22,134)	(21,66)	(-22,48)	(0,18)	(-19,0)	(1,28)	(-1,49)	(-2,1)	(20,16)	(41,1)	(-23,12)	(44,5)	
L2C -20>	(1,176)	(-23,42)	(-1,93)	(42,55)	(45,2)	(41,5)	(22,32)	(-2,32)	(19,5)	(18,2)	(20,13)	(-22,35)	(43,13)	(21,102)	(-21,28)	(-9,1)	
L2C -19>	(-1,73)	(-21,12)	(-2,184)	(19,46)	(20,48)	(-3,23)	(-22,13)	(-24,12)	(21,82)	(41,26)	(40,3)	(-23,17)	(2,33)	(15,1)	(22,27)	(0,17)	
L2C -18>	(1,144)	(-1,0)	(18,0)	(17,6)	(-3,0)	(-7,1)	(63,0)	(10,0)	(5,0)	(0,0)	(21,0)	(12,0)	(4,0)	(20,0)	(2,0)	(1,0)	
L2C -17>	(22,9)	(1,67)	(-5,44)	(10,21)	(-4,20)	(16,16)	(-3,12)	(-2,32)	(8,17)	(3,1)	(12,8)	(18,5)	(5,6)	(-1,47)	(-21,7)	(2,36)	
L2C -16>	(17,7)	(1,159)	(2,22)	(15,12)	(14,18)	(24,3)	(8,40)	(-1,27)	(-2,14)	(-7,3)	(21,4)	(10,3)	(-5,21)	(-3,7)	(0,48)	(16,17)	
L2C -15>	(1,221)	(43,41)	(9,35)	(14,19)	(-1,72)	(21,24)	(-20,1)	(-22,26)	(15,88)	(2,64)	(16,11)	(22,15)	(28,11)	(0,35)	(-21,10)	(7,33)	
L2C -14>	(22,30)	(8,29)	(36,24)	(-1,34)	(-15,178)	(14,12)	(-22,13)	(28,40)	(15,24)	(2,1)	(1,53)	(-7,30)	(7,53)	(-14,16)	(21,25)	(6,34)	
L2C -13>	(1,83)	(-1,173)	(12,11)	(15,44)	(23,3)	(13,62)	(27,7)	(-2,24)	(7,53)	(14,25)	(4,5)	(2,47)	(0,9)	(-5,13)	(24,1)	(6,27)	
L2C -12>	(-4,251)	(-9,220)	(-7,84)	(3,90)	(1,119)	(0,13)	(10,15)	(6,84)	(9,46)	(-5,222)	(-2,49)	(-8,2)	(-1,185)	(2,67)	(5,39)	(-10,120)	
L2C -11>	(6,17)	(-1,193)	(-9,23)	(1,57)	(13,14)	(-10,104)	(5,83)	(4,1)	(2,91)	(-2,45)	(12,13)	(3,46)	(-5,56)	(-8,32)	(14,7)	(43,18)	
L2C -10>	(-13,1)	(-1,45)	(9,17)	(5,5)	(2,14)	(1,182)	(3,6)	(31,7)	(-21,34)	(-5,25)	(43,20)	(-3,5)	(0,26)	(22,9)	(23,3)	(-2,12)	
L2C -9>	(-22,47)	(2,39)	(-1,113)	(0,27)	(10,16)	(7,78)	(23,1)	(16,41)	(21,8)	(8,134)	(-2,12)	(4,8)	(-6,17)	(-8,7)	(1,212)	(43,30)	
L2C -8>	(1,216)	(29,5)	(-1,30)	(22,9)	(-7,9)	(13,18)	(-21,14)	(-2,16)	(15,15)	(7,93)	(14,10)	(-14,17)	(8,57)	(23,18)	(43,1)	(-6,12)	
L2C -7>	(2,30)	(21,60)	(-1,153)	(1,205)	(6,31)	(-22,9)	(8,52)	(-8,35)	(7,102)	(-6,17)	(9,12)	(22,1)	(15,118)	(-21,31)	(0,20)	(-7,28)	
L2C -6>	(-9,9)	(-1,26)	(8,5)	(1,247)	(6,33)	(-2,6)	(-7,27)	(0,12)	(7,23)	(2,21)	(25,1)	(14,3)	(21,22)	(4,7)	(17,8)	(3,6)	
L2C -5>	(1,147)	(-1,82)	(-2,122)	(-4,22)	(-5,39)	(2,31)	(-21,4)	(0,42)	(-22,27)	(43,6)	(-8,12)	(5,1)	(10,26)	(21,4)	(-3,68)	(6,26)	
L2C -4>	(2,64)	(-1,172)	(5,33)	(1,81)	(9,18)	(16,15)	(-4,7)	(-6,18)	(6,12)	(-5,95)	(-3,134)	(-2,84)	(7,1)	(10,55)	(3,24)	(-22,6)	
L2C -3>	(1,129)	(-3,4)	(-4,1)	(2,19)	(-21,66)	(4,15)	(22,31)	(44,13)	(8,2)	(-42,11)	(-1,71)	(6,2)	(43,6)	(13,27)	(-2,32)	(-19,22)	
L2C -2>	(1,226)	(2,6)	(-1,30)	(-21,26)	(0,176)	(-5,3)	(4,6)	(-2,3)	(-42,3)	(44,16)	(21,15)	(22,24)	(-22,15)	(-20,3)	(3,2)	(-8,1)	
L2C -1>	(0,101)	(43,3)	(4,55)	(-4,1)	(44,47)	(-43,12)	(-21,246)	(22,135)	(-2,10)	(21,24)	(2,41)	(-1,50)	(-20,6)	(-22,88)	(3,8)	(1,200)	
L2C 0>	(-22,21)	(-19,1)	(1,124)	(-1,7)	(-43,2)	(2,13)	(0,219)	(-21,18)	(21,11)	(-18,1)	(22,10)	(15,1)	(43,0)	(13,0)	(14,0)	(35,0)	
L2C 1>	(1,139)	(11,14)	(-43,1)	(42,14)	(-23,4)	(-57,11)	(-21,4)	(-2,8)	(22,14)	(-1,28)	(-22,26)	(12,12)	(3,7)	(0,8)	(5,12)	(21,21)	
L2C 2>	(-4,1)	(1,224)	(20,2)	(3,5)	(-1,17)	(-7,1)	(13,1)	(4,3)	(40,4)	(2,14)	(21,2)	(-24,5)	(-23,25)	(-2,39)	(5,1)	(19,1)	
L2C 3>	(-22,1)	(-1,219)	(41,1)	(1,33)	(-8,1)	(20,0)	(-6,0)	(10,0)	(4,2)	(6,0)	(5,0)	(2,6)	(3,10)	(-2,21)	(19,1)	(-4,2)	
L2C 4>	(1,17)	(-2,202)	(-7,1)	(2,9)	(-38,2)	(-20,1)	(5,4)	(-5,2)	(21,1)	(-27,0)	(-6,0)	(-9,2)	(-13,1)	(-1,37)	(-3,0)	(-32,0)	
L2C 5>	(-5,3)	(-1,2)	(-14,1)	(17,249)	(-18,41)	(-39,42)	(-21,0)	(4,1)	(-4,2)	(0,0)	(-6,1)	(21,0)	(-2,1)	(-8,1)	(40,0)	(1,0)	
L2C 6>	(1,58)	(-3,14)	(-13,7)	(-1,24)	(4,21)	(15,9)	(-34,6)	(-2,28)	(-5,1)	(-14,24)	(7,168)	(0,16)	(-21,37)	(-4,4)	(2,17)	(-6,183)	
L2C 7>	(-8,46)	(-6,136)	(1,173)	(8,38)	(-15,54)	(7,66)	(2,43)	(-20,1)	(-7,83)	(0,38)	(15,29)	(-14,243)	(-16,14)	(-1,44)	(-22,23)	(21,19)	
L2C 8>	(21,19)	(1,72)	(6,113)	(2,10)	(-1,133)	(-6,36)	(-14,26)	(-5,48)	(0,28)	(-8,87)	(-7,40)	(-15,5)	(14,19)	(-2,25)	(7,39)	(13,34)	
L2C 9>	(-1,58)	(6,12)	(-2,47)	(-8,73)	(1,17)	(-7,63)	(-10,24)	(14,7)	(-21,13)	(-22,23)	(-5,132)	(-4,70)	(13,12)	(40,2)	(5,22)	(-3,6)	
L2C 10>	(1,40)	(-2,71)	(-1,16)	(-4,175)	(34,8)	(-15,86)	(-5,117)	(4,1)	(-9,99)	(6,32)	(-8,60)	(-12,12)	(28,4)	(-7,39)	(2,9)	(5,22)	
L2C 11>	(-22,0)	(1,132)	(-7,0)	(-25,0)	(-5,0)	(-15,0)	(3,0)	(-3,0)	(1,0)	(1,0)	(1,0)	(1,0)	(1,0)	(1,0)	(1,0)	(1,0)	
L2C 12>	(-4,0)	(4,0)	(2,204)	(-1,0)	(-9,0)	(-5,0)	(-12,0)	(28,0)	(-21,0)	(-8,0)	(-16,0)	(1,0)	(1,0)	(1,0)	(1,0)	(1,0)	
L2C 13>	(10,1)	(1,80)	(-1,53)	(-8,46)	(-6,113)	(6,71)	(-12,17)	(-13,89)	(-7,63)	(-21,82)	(-14,185)	(-34,14)	(15,35)	(-15,209)	(-35,20)	(-36,16)	
L2C 14>	(-1,31)	(-14,44)	(29,1)	(-2,23)	(14,30)	(-7,49)	(7,137)	(1,126)	(-15,77)	(-6,170)	(-36,20)	(15,17)	(8,22)	(-13,25)	(6,13)	(-8,54)	
L2C 15>	(-36,82)	(0,83)	(1,48)	(-1,255)	(-16,116)	(-2,63)	(20,36)	(-22,66)	(7,40)	(-37,23)	(5,1)	(-14,71)	(-13,13)	(6,147)	(-15,200)	(13,34)	
L2C 16>	(-43,10)	(-1,78)	(-16,196)	(-7,15)	(36,1)	(-8,117)	(21,15)	(5,19)	(0,36)	(-14,30)	(6,31)	(-22,137)	(-21,178)	(7,15)	(-2,18)	(-15,234)	
L2C 17>	(-8,1)	(1,250)	(-5,1)	(6,0)	(-1,0)	(-2,0)	(-18,2)	(-3,1)	(-29,0)	(1,0)	(1,0)	(1,0)	(1,0)	(1,0)	(1,0)	(1,0)	
L2C 18>	(24,34)	(-21,22)	(-3,10)	(1,14)	(2,42)	(-8,1)	(-2,16)	(-4,15)	(-22,10)	(-1,83)	(-19,30)	(-24,7)	(-20,12)	(9,7)	(-18,44)	(-29,7)	
L2C 19>	(-20,3)	(22,27)	(-41,1)	(-22,11)	(-21,194)	(0,36)	(21,7)	(1,29)	(23,6)	(2,3)	(-42,13)	(16,1)	(-48,1)	(-43,11)	(-19,6)	(-35,3)	
L2C 20>	(-43,53)	(1,64)	(-11,1)	(-22,37)	(23,2)	(-21,192)	(0,13)	(2,3)	(-19,4)	(-28,0)	(-42,6)	(-1,3)	(21,1)	(22,18)	(-29,0)	(-41,2)	
L2C 21>	(1,149)	(-22,174)	(22,60)	(-2,1)	(-42,23)	(-43,88)	(-21,122)	(-20,19)	(21,30)	(0,8)	(-14,1)	(-44,1)	(-15,2)	(2,1)	(-1,8)	(23,1)	
L2C 22>	(-43,50)	(-44,21)	(-1,91)	(20,20)	(-19,0)	(-45,1)	(1,29)	(-21,173)	(0,15)	(21,42)	(-23,3)	(-22,76)	(-2,4)	(-20,3)	(22,22)	(-42,0)	
L2C 23>	(1,234)	(-22,87)	(20,70)	(21,30)	(-1,120)	(-21,27)	(22,18)	(-16,16)	(-45,20)	(-8,1)	(-44,100)	(-43,7)	(7,11)	(-24,3)	(-2,22)	(-23,12)	
L2C 24>	(5,1)	(1,26)	(2,6)	(-23,199)	(20,8)	(4,28)	(-46,179)	(-24,57)	(-45,62)	(0,11)	(-1,59)	(22,8)	(-2,238)	(19,249)	(-22,95)	(-3,57)	
L2C 25>	(6,5)	(-5,8)	(-24,48)	(-18,12)	(1,35)	(-3,18)	(-23,15)	(-4,64)	(-25,34)	(-10,1)	(15,74)	(-1,27)	(-2,50)	(0,134)	(-6,9)	(-17,18)	
L2C 26>	(1,36)	(-19,19)	(-1,13)	(-4,33)	(-48,9)	(-26,12)	(5,4)	(-13,55)	(-25,6)	(-3,18)	(-12,13)	(-17,8)	(-5,29)	(-6,19)	(-21,1)	(-15,15)	
L2C 27>	(22,25)	(-2,13)	(1,53)	(-14,28)	(8,1)	(-1,37)	(15,28)	(-6,19)	(-5,7)	(7,14)	(-26,14)	(-21,19)	(-7,20)	(14,9)	(-12,17)	(-41,3)	
L2C 28>	(-36,27)	(1,51)	(-35,24)	(-50,251)	(-48,12)	(-29,40)	(-49,50)	(-7,97)	(-41,1)	(0,41)	(-22,52)	(-21,98)	(-28,27)	(-14,67)	(-6,41)	(-43,33)	
L2C 29>	(-1,67)	(13,23)	(-8,40)	(-50,159)	(21,34)	(8,1)	(-6,19)	(1,10)	(-4,37)	(7,59)	(-28,90)	(-14,42)	(28,28)	(-5,20)	(-7,73)	(-30,22)	
L2C 30>	(6,1)	(-1,148)	(-4,100)	(21,9)	(-5,96)	(13,12)	(-9,70)	(-37,21)	(-50,32)	(-8,30)	(-22,11)	(5,20)	(-29,38)	(-10,71)	(-31,36)	(-7,26)	
L2C 31>	(-16,1)	(-4,79)	(-1,102)	(17,14)	(31,96)	(-37,5)	(32,28)	(-32,12)	(-10,28)	(12,50)	(-30,30)	(-9,18)	(-53,11)	(6,13)	(5,11)	(-5,79)	
L2C 32>	(-21,3)	(1,4)	(-1,27)	(-32,1)	(-38,4)	(3,13)	(-54,3)	(-27,3)	(-5,11)	(27,4)	(-10,3)	(-2,1)	(-3,3)	(-39,3)	(-8,7)	(5,1)	
L2C 33>	(-1,21)	(-14,3)	(-55,2)	(-48,1)	(-54,1)	(-29,1)	(1,13)	(-28,1)	(-12,2)	(-49,1)	(21,2)	(-39,7)	(-21,42)	(-53,6)	(-7,3)	(15,1)	
L2C 34>	(-39,40)	(-36,47)	(4,6)	(13,18)	(-56,3)	(-22,36)	(-35,31)	(-26,4)	(2,4)	(-21,39)	(1,18)	(-1,54)	(-49,16)	(-55,31)	(6,3)	(-28,17)	
L2C 35>	(-42,12)	(-57,33)	(-56,16)	(-1,155)	(-34,51)	(-28,55)	(-43,10)	(-20,1)	(1,171)	(-6,13)	(-13,8)	(-26,17)	(-36,172)	(-7,35)	(-15,7)	(-14,36)	
L2C 36>	(-55,34)	(-1,61)	(-34,32)	(-22,20)	(-15,1)	(-57,157)	(-35,132)	(-7,88)	(-51,92)	(-44,11)	(-37,44)	(-58,13)	(7,12)	(-50,22)	(13,28)	(-29,21)	
L2C 37>	(-1,57)	(1,22)	(-44,18)	(-15,8)	(8,1)	(-8,14)	(-36,59)	(-29,6)	(-51,141)	(6,23)	(-59,14)	(-57,24)	(-30,5)	(-21,20)	(13,11)	(-38,13)	
L2C 38>	(0,4)	(-1,33)	(-39,15)	(-51,3)	(-43,12)	(-9,1)	(-45,9)	(-22,39)	(3,4)	(-21,24)	(1,6)	(-8,4)	(12,2)	(2,2)	(-48,2)	(-32,2)	
L2C 39>	(3,2)	(-1,27)	(1,9)	(-42,1)	(-21,1)	(-37,2)	(-22,6)	(-41,4)	(-40,5)	(-3,1)	(4,1)	(-39,1)	(-35,1)	(-19,9)	(-17,1)	(-13,1)	
L2C 40>	(-43,60)	(0,8)	(-21,183)	(1,55)	(-1,45)	(-42,66)	(-20,8)	(-40,9)	(-41,6)	(9,1)	(-18,4)	(-19,2)	(-5,1)	(2,3)	(-27,1)	(3,5)	
L2C 41>	(-44,31)	(-22,162)	(-43,179)	(0,14)	(-21,218)	(-1,32)	(1,31)	(-40,5)	(-33,1)	(-12,2)	(-42,5)	(-49,1)	(-19,6)	(2,8)	(-20,1)	(-34,0)	
L2C 42>	(-43,35)	(-21,136)	(-7,0)	(0,20)	(1,41)	(-22,52)	(-40,0)	(-41,7)	(-44,1)	(-20,16)	(-1,2)	(-42,15)	(2,1)	(-19,1)	(-35,0)	(-23,0)	
L2C 43>	(-22,133)	(-7,1)	(-1,21)	(-21,220)	(1,172)	(-43,3)	(-41,1)	(-42,58)	(2,6)	(-14,0)	(-44,4)	(0,15)	(-20,5)	(-19,0)	(-13,0)	(-4,0)	
L2C 44>	(1,44)	(-43,89)	(-22,231)	(-29,1)	(-1,164)	(-59,0)	(-8,1)	(-51,2)	(-42,0)	(-21,37)	(-2,8)	(-23,2)	(2,0)	(0,5)	(-7,0)	(-45,1)	
L2C 45>	(-1,109)	(-2,254)	(1,194)	(-22,15)	(-45,56)	(-44,128)	(-24,10)	(-23,86)	(-43,8)	(-46,20)	(8,10)	(-35,1)	(-21,3)	(3,3)	(-8,2)	(-3,41)	
L2C 46>	(-22,0)	(-45,34)	(-24,4)	(-3,57)	(-2,130)	(-1,0)	(15,9)	(1,2)	(-47,1)	(-46,13)	(-5,0)	(-23,13)	(-39,0)	(-13,1)	(13,0)	(7,1)	
L2C 47>	(1,6)	(-46,3)	(-1,52)	(6,1)	(-4,2)	(-26,4)	(7,1)	(-50,2)	(-3,15)	(-54,1)	(0,1)	(-33,3)	(-49,3)	(-52,2)	(-5,1)	(-48,3)	
L2C 48>	(-1,15)	(14,13)	(1,7)	(-50,19)	(15,15)	(10,4)	(-5,116)	(-4,16)	(-2,13)	(-42,3)	(-28,5)	(-49,1)	(-41,1)	(-36,2)	(-26,1)	(-3,3)	
L2C 49>	(-6,4)	(-28,14)	(1,4)	(-22,2)	(-49,3)	(-27,3)	(-50,6)	(-1,17)	(-54,1)	(-7,180)	(-29,1)	(8,6)	(-35,7)	(-21,4)	(-8,9)	(-48,4)	
L2C 50>	(-14,13)	(-43,9)	(-35,18)	(-29,36)	(-36,17)	(-49,43)	(-8,51)	(-23,5)	(-21,7)	(8,13)	(-28,53)	(7,1)	(-7,140)	(-6,11)	(-1,54)	(-22,3)	
L2C 51>	(-52,70)	(-7,36)	(0,28)	(-5,10)	(-51,94)	(-53,15)	(-8,15)	(-57,9)	(-44,7)	(-31,5)	(-54,22)	(-32,22)	(-35,2)	(-36,16)	(-1,16)	(-23,2)	
L2C 52>	(-53,77)	(-35,30)	(-23,1)	(-52,4)	(-51,5)	(-14,20)	(-15,69)	(-5,42)	(5,5)	(-4,137)	(-9,43)	(-34,3)	(-10,6)	(-8,6)	(-7,6)	(-1,4)	
L2C 53>	(-31,1)	(-53,25)	(-52,12)	(-5,53)	(6,3)	(5,6)	(-10,33)	(-7,7)	(-9,34)	(-54,1)	(-8,3)	(-40,1)	(-4,3)	(1,0)	(1,0)	(1,0)	
L2C 54>	(-50,1)	(-34,1)	(-32,2)	(1,2)	(-4,1)	(-37,1)	(-53,1)	(-38,1)	(1,0)	(1,0)	(1,0)	(1,0)	(1,0)	(1,0)	(1,0)	(1,0)	
L2C 55>	(-35,5)	(-57,5)	(-34,8)	(-51,2)	(-58,1)	(5,1)	(-36,5)	(-14,2)	(-56,2)	(1,0)	(1,0)	(1,0)	(1,0)	(1,0)	(1,0)	(1,0)	
L2C 56>	(-57,1)	(-35,3)	(5,1)	(-34,2)	(-49,9)	(-43,1)	(-27,1)	(2,3)	(-36,3)	(-50,1)	(-14,1)	(-29,2)	(-30,1)	(-42,2)	(-56,1)	(1,0)	
L2C 57>	(0,1)	(-2,1)	(-37,1)	(-58,1)	(-21,3)	(-6,1)	(-35,5)	(-49,1)	(-36,7)	(-51,1)	(1,1)	(-5,3)	(5,2)	(-29,2)	(-7,1)	(-56,1)	
L2C 58>	(-14,6)	(-43,2)	(-57,30)	(-15,6)	(-36,19)	(-37,9)	(-44,8)	(-51,43)	(-59,2)	(-35,1)	(-29,2)	(-55,6)	(-13,1)	(-5,1)	(-45,1)	(-7,1)	
L2C 59>	(-37,1)	(-15,5)	(-1,8)	(-58,1)	(-38,1)	(-54,2)	(-52,1)	(-30,1)	(-7,1)	(-63,1)	(1,0)	(1,0)	(1,0)	(1,0)	(1,0)	(1,0)	
L2C 60>	(-57,1)	(-1,4)	(-2,1)	(1,0)	(1,0)	(1,0)	(1,0)	(1,0)	(1,0)	(1,0)	(1,0)	(1,0)	(1,0)	(1,0)	(1,0)	(1,0)	
L2C 61>	(-1,22)	(-60,1)	(-46,1)	(1,1)	(-6,1)	(-54,1)	(1,0)	(1,0)	(1,0)	(1,0)	(1,0)	(1,0)	(1,0)	(1,0)	(1,0)	(1,0)	
L2C 62>	(-1,102)	(1,1)	(-2,5)	(-43,4)	(-50,1)	(-21,1)	(1,0)	(1,0)	(1,0)	(1,0)	(1,0)	(1,0)	(1,0)	(1,0)	(1,0)	(1,0)	
L2C 63>	(-1,250)	(-15,17)	(-44,7)	(-22,72)	(-21,77)	(-54,1)	(-43,6)	(-12,4)	(-16,1)	(-11,5)	(-6,1)	(-39,1)	(-41,1)	(1,0)	(1,0)	(1,0)	

DRAM Statistics
 CHANNEL 0
 RQ ROW_BUFFER_HIT:     289261  ROW_BUFFER_MISS:     646476
 DBUS_CONGESTED:     872650
 WQ ROW_BUFFER_HIT:      76633  ROW_BUFFER_MISS:     405005  FULL:          0

 AVG_CONGESTED_CYCLE: 6
