
*** ChampSim Multicore Out-of-Order Simulator ***

Warmup Instructions: 1000000
Simulation Instructions: 10000000
Number of CPUs: 4
LLC sets: 8192
LLC ways: 16
Off-chip DRAM Size: 4096 MB Channels: 1 Width: 64-bit Data Rate: 3200 MT/s

CPU 0 runs /home/virtualcse/Data-Prefetching/ChampSim/dpc3_traces/600.perlbench_s-1273B.champsimtrace.xz
CPU 1 runs /home/virtualcse/Data-Prefetching/ChampSim/dpc3_traces/603.bwaves_s-1080B.champsimtrace.xz
CPU 2 runs /home/virtualcse/Data-Prefetching/ChampSim/dpc3_traces/620.omnetpp_s-141B.champsimtrace.xz
CPU 3 runs /home/virtualcse/Data-Prefetching/ChampSim/dpc3_traces/641.leela_s-334B.champsimtrace.xz
Ultra pref. initializing...
Ultra pref. initialized
Ultra pref. initializing...
Ultra pref. initialized
Ultra pref. initializing...
Ultra pref. initialized
Ultra pref. initializing...
Ultra pref. initialized
Ultra pref. initializing...
Ultra pref. initialized
Ultra pref. initializing...
Ultra pref. initialized
Ultra pref. initializing...
Ultra pref. initialized
Ultra pref. initializing...
Ultra pref. initialized

Warmup complete CPU 0 instructions: 1397242 cycles: 539842 (Simulation time: 0 hr 0 min 11 sec) 
Warmup complete CPU 1 instructions: 1558465 cycles: 539842 (Simulation time: 0 hr 0 min 11 sec) 
Warmup complete CPU 2 instructions: 1000001 cycles: 539842 (Simulation time: 0 hr 0 min 11 sec) 
Warmup complete CPU 3 instructions: 1219637 cycles: 539841 (Simulation time: 0 hr 0 min 11 sec) 

Heartbeat CPU 1 instructions: 10000001 cycles: 4563857 heartbeat IPC: 2.19113 cumulative IPC: 2.09779 (Simulation time: 0 hr 0 min 44 sec) 
Finished CPU 1 instructions: 10000001 cycles: 4774992 cumulative IPC: 2.09424 (Simulation time: 0 hr 0 min 51 sec) 
Heartbeat CPU 0 instructions: 10000000 cycles: 5653770 heartbeat IPC: 1.76873 cumulative IPC: 1.68222 (Simulation time: 0 hr 0 min 54 sec) 
Finished CPU 0 instructions: 10000001 cycles: 5948000 cumulative IPC: 1.68124 (Simulation time: 0 hr 1 min 1 sec) 
Heartbeat CPU 1 instructions: 20000003 cycles: 9347293 heartbeat IPC: 2.09055 cumulative IPC: 2.09386 (Simulation time: 0 hr 1 min 23 sec) 
Heartbeat CPU 3 instructions: 10000002 cycles: 10168838 heartbeat IPC: 0.983397 cumulative IPC: 0.911867 (Simulation time: 0 hr 1 min 29 sec) 
Finished CPU 3 instructions: 10000003 cycles: 10966992 cumulative IPC: 0.911827 (Simulation time: 0 hr 1 min 39 sec) 
Heartbeat CPU 0 instructions: 20000000 cycles: 11974530 heartbeat IPC: 1.58209 cumulative IPC: 1.62687 (Simulation time: 0 hr 1 min 43 sec) 
Heartbeat CPU 1 instructions: 30000001 cycles: 13958319 heartbeat IPC: 2.16871 cumulative IPC: 2.11958 (Simulation time: 0 hr 1 min 59 sec) 
Heartbeat CPU 0 instructions: 30000002 cycles: 16989480 heartbeat IPC: 1.99404 cumulative IPC: 1.73881 (Simulation time: 0 hr 2 min 24 sec) 
Heartbeat CPU 1 instructions: 40000003 cycles: 18573588 heartbeat IPC: 2.16672 cumulative IPC: 2.13164 (Simulation time: 0 hr 2 min 37 sec) 
Heartbeat CPU 3 instructions: 20000001 cycles: 21182977 heartbeat IPC: 0.907924 cumulative IPC: 0.909763 (Simulation time: 0 hr 2 min 56 sec) 
Heartbeat CPU 2 instructions: 10000000 cycles: 22964433 heartbeat IPC: 0.435456 cumulative IPC: 0.401345 (Simulation time: 0 hr 3 min 9 sec) 
Heartbeat CPU 0 instructions: 40000002 cycles: 23026713 heartbeat IPC: 1.65639 cumulative IPC: 1.71668 (Simulation time: 0 hr 3 min 10 sec) 
Heartbeat CPU 1 instructions: 50000003 cycles: 23196312 heartbeat IPC: 2.16323 cumulative IPC: 2.13809 (Simulation time: 0 hr 3 min 11 sec) 
Finished CPU 2 instructions: 10000000 cycles: 24858687 cumulative IPC: 0.402274 (Simulation time: 0 hr 3 min 27 sec) 

CPU 0 Branch Prediction Accuracy: 98.5247% MPKI: 1.83155 Average ROB Occupancy at Mispredict: 92.7349

CPU 1 Branch Prediction Accuracy: 92.5945% MPKI: 9.63438 Average ROB Occupancy at Mispredict: 84.1439

CPU 2 Branch Prediction Accuracy: 96.1891% MPKI: 5.6957 Average ROB Occupancy at Mispredict: 85.2499

CPU 3 Branch Prediction Accuracy: 86.1447% MPKI: 15.9292 Average ROB Occupancy at Mispredict: 30.7588

ChampSim completed all CPUs

Total Simulation Statistics (not including warmup)

CPU 0 cumulative IPC: 1.70899 instructions: 42483361 cycles: 24858687
L1D TOTAL     ACCESS:   21133975  HIT:   21129266  MISS:       4709
L1D LOAD      ACCESS:    6246560  HIT:    6244664  MISS:       1896
L1D RFO       ACCESS:    9202618  HIT:    9202532  MISS:         86
L1D PREFETCH  ACCESS:    5684797  HIT:    5682070  MISS:       2727
L1D WRITEBACK ACCESS:          0  HIT:          0  MISS:          0
L1I TOTAL     ACCESS:    4973885  HIT:    4972600  MISS:       1285
L1I LOAD      ACCESS:    4973885  HIT:    4972600  MISS:       1285
L1I RFO       ACCESS:          0  HIT:          0  MISS:          0
L1I PREFETCH  ACCESS:          0  HIT:          0  MISS:          0
L1I WRITEBACK ACCESS:          0  HIT:          0  MISS:          0
L2C TOTAL     ACCESS:      17714  HIT:      11762  MISS:       5952
L2C LOAD      ACCESS:       3146  HIT:       1929  MISS:       1217
L2C RFO       ACCESS:         85  HIT:         21  MISS:         64
L2C PREFETCH  ACCESS:      14205  HIT:       9534  MISS:       4671
L2C WRITEBACK ACCESS:        278  HIT:        278  MISS:          0

L1D -512>	(3,7)	(68,2)	(1,37)	(0,78)	(-9,1)	(13,1)	(2,3)	(47,1)	(5,12)	(4,22)	(60,0)	(-2,1)	(-1,11)	(-20,1)	(336,0)	(8,1)	
L1D -511>	(1,69)	(1,0)	(1,0)	(1,0)	(1,0)	(1,0)	(1,0)	(1,0)	(1,0)	(1,0)	(1,0)	(1,0)	(1,0)	(1,0)	(1,0)	(1,0)	
L1D -510>	(1,0)	(1,0)	(1,0)	(1,0)	(1,0)	(1,0)	(1,0)	(1,0)	(1,0)	(1,0)	(1,0)	(1,0)	(1,0)	(1,0)	(1,0)	(1,0)	
L1D -509>	(1,0)	(1,0)	(1,0)	(1,0)	(1,0)	(1,0)	(1,0)	(1,0)	(1,0)	(1,0)	(1,0)	(1,0)	(1,0)	(1,0)	(1,0)	(1,0)	
L1D -508>	(1,0)	(1,0)	(1,0)	(1,0)	(1,0)	(1,0)	(1,0)	(1,0)	(1,0)	(1,0)	(1,0)	(1,0)	(1,0)	(1,0)	(1,0)	(1,0)	
L1D -507>	(1,0)	(1,0)	(1,0)	(1,0)	(1,0)	(1,0)	(1,0)	(1,0)	(1,0)	(1,0)	(1,0)	(1,0)	(1,0)	(1,0)	(1,0)	(1,0)	
L1D -506>	(1,0)	(1,0)	(1,0)	(1,0)	(1,0)	(1,0)	(1,0)	(1,0)	(1,0)	(1,0)	(1,0)	(1,0)	(1,0)	(1,0)	(1,0)	(1,0)	
L1D -505>	(2,1)	(1,0)	(1,0)	(1,0)	(1,0)	(1,0)	(1,0)	(1,0)	(1,0)	(1,0)	(1,0)	(1,0)	(1,0)	(1,0)	(1,0)	(1,0)	
L1D -504>	(0,1)	(1,0)	(1,0)	(1,0)	(1,0)	(1,0)	(1,0)	(1,0)	(1,0)	(1,0)	(1,0)	(1,0)	(1,0)	(1,0)	(1,0)	(1,0)	
L1D -503>	(0,1)	(1,0)	(1,0)	(1,0)	(1,0)	(1,0)	(1,0)	(1,0)	(1,0)	(1,0)	(1,0)	(1,0)	(1,0)	(1,0)	(1,0)	(1,0)	
L1D -502>	(99,1)	(112,1)	(1,0)	(1,0)	(1,0)	(1,0)	(1,0)	(1,0)	(1,0)	(1,0)	(1,0)	(1,0)	(1,0)	(1,0)	(1,0)	(1,0)	
L1D -501>	(-6,1)	(342,1)	(4,1)	(1,0)	(1,0)	(1,0)	(1,0)	(1,0)	(1,0)	(1,0)	(1,0)	(1,0)	(1,0)	(1,0)	(1,0)	(1,0)	
L1D -500>	(4,1)	(1,0)	(1,0)	(1,0)	(1,0)	(1,0)	(1,0)	(1,0)	(1,0)	(1,0)	(1,0)	(1,0)	(1,0)	(1,0)	(1,0)	(1,0)	
L1D -499>	(29,1)	(1,0)	(1,0)	(1,0)	(1,0)	(1,0)	(1,0)	(1,0)	(1,0)	(1,0)	(1,0)	(1,0)	(1,0)	(1,0)	(1,0)	(1,0)	
L1D -498>	(146,1)	(85,4)	(1,0)	(1,0)	(1,0)	(1,0)	(1,0)	(1,0)	(1,0)	(1,0)	(1,0)	(1,0)	(1,0)	(1,0)	(1,0)	(1,0)	
L1D -497>	(10,1)	(1,0)	(1,0)	(1,0)	(1,0)	(1,0)	(1,0)	(1,0)	(1,0)	(1,0)	(1,0)	(1,0)	(1,0)	(1,0)	(1,0)	(1,0)	
L1D -496>	(495,1)	(135,1)	(1,0)	(1,0)	(1,0)	(1,0)	(1,0)	(1,0)	(1,0)	(1,0)	(1,0)	(1,0)	(1,0)	(1,0)	(1,0)	(1,0)	
L1D -495>	(2,1)	(0,1)	(146,1)	(1,0)	(1,0)	(1,0)	(1,0)	(1,0)	(1,0)	(1,0)	(1,0)	(1,0)	(1,0)	(1,0)	(1,0)	(1,0)	
L1D -494>	(1,1)	(0,1)	(112,2)	(146,1)	(1,0)	(1,0)	(1,0)	(1,0)	(1,0)	(1,0)	(1,0)	(1,0)	(1,0)	(1,0)	(1,0)	(1,0)	
L1D -493>	(1,1)	(0,1)	(1,0)	(1,0)	(1,0)	(1,0)	(1,0)	(1,0)	(1,0)	(1,0)	(1,0)	(1,0)	(1,0)	(1,0)	(1,0)	(1,0)	
L1D -492>	(0,2)	(1,0)	(1,0)	(1,0)	(1,0)	(1,0)	(1,0)	(1,0)	(1,0)	(1,0)	(1,0)	(1,0)	(1,0)	(1,0)	(1,0)	(1,0)	
L1D -491>	(-1,2)	(1,0)	(1,0)	(1,0)	(1,0)	(1,0)	(1,0)	(1,0)	(1,0)	(1,0)	(1,0)	(1,0)	(1,0)	(1,0)	(1,0)	(1,0)	
L1D -490>	(98,1)	(47,1)	(-1,1)	(1,0)	(1,0)	(1,0)	(1,0)	(1,0)	(1,0)	(1,0)	(1,0)	(1,0)	(1,0)	(1,0)	(1,0)	(1,0)	
L1D -489>	(-3,1)	(1,0)	(1,0)	(1,0)	(1,0)	(1,0)	(1,0)	(1,0)	(1,0)	(1,0)	(1,0)	(1,0)	(1,0)	(1,0)	(1,0)	(1,0)	
L1D -488>	(-3,1)	(350,1)	(115,1)	(99,1)	(0,1)	(1,0)	(1,0)	(1,0)	(1,0)	(1,0)	(1,0)	(1,0)	(1,0)	(1,0)	(1,0)	(1,0)	
L1D -487>	(304,1)	(0,1)	(1,0)	(1,0)	(1,0)	(1,0)	(1,0)	(1,0)	(1,0)	(1,0)	(1,0)	(1,0)	(1,0)	(1,0)	(1,0)	(1,0)	
L1D -486>	(99,1)	(55,1)	(18,1)	(0,1)	(79,1)	(1,0)	(1,0)	(1,0)	(1,0)	(1,0)	(1,0)	(1,0)	(1,0)	(1,0)	(1,0)	(1,0)	
L1D -485>	(346,1)	(0,2)	(1,0)	(1,0)	(1,0)	(1,0)	(1,0)	(1,0)	(1,0)	(1,0)	(1,0)	(1,0)	(1,0)	(1,0)	(1,0)	(1,0)	
L1D -484>	(82,1)	(70,1)	(85,3)	(10,1)	(47,1)	(1,1)	(1,0)	(1,0)	(1,0)	(1,0)	(1,0)	(1,0)	(1,0)	(1,0)	(1,0)	(1,0)	
L1D -483>	(322,1)	(1,0)	(1,0)	(1,0)	(1,0)	(1,0)	(1,0)	(1,0)	(1,0)	(1,0)	(1,0)	(1,0)	(1,0)	(1,0)	(1,0)	(1,0)	
L1D -482>	(98,1)	(38,1)	(354,1)	(-25,1)	(-6,1)	(4,1)	(1,0)	(1,0)	(1,0)	(1,0)	(1,0)	(1,0)	(1,0)	(1,0)	(1,0)	(1,0)	
L1D -481>	(0,1)	(1,0)	(1,0)	(1,0)	(1,0)	(1,0)	(1,0)	(1,0)	(1,0)	(1,0)	(1,0)	(1,0)	(1,0)	(1,0)	(1,0)	(1,0)	
L1D -480>	(0,1)	(99,2)	(3,1)	(34,1)	(1,0)	(1,0)	(1,0)	(1,0)	(1,0)	(1,0)	(1,0)	(1,0)	(1,0)	(1,0)	(1,0)	(1,0)	
L1D -479>	(146,1)	(308,1)	(0,1)	(1,0)	(1,0)	(1,0)	(1,0)	(1,0)	(1,0)	(1,0)	(1,0)	(1,0)	(1,0)	(1,0)	(1,0)	(1,0)	
L1D -478>	(34,1)	(95,1)	(1,0)	(1,0)	(1,0)	(1,0)	(1,0)	(1,0)	(1,0)	(1,0)	(1,0)	(1,0)	(1,0)	(1,0)	(1,0)	(1,0)	
L1D -477>	(0,1)	(9,1)	(1,0)	(1,0)	(1,0)	(1,0)	(1,0)	(1,0)	(1,0)	(1,0)	(1,0)	(1,0)	(1,0)	(1,0)	(1,0)	(1,0)	
L1D -476>	(91,1)	(3,1)	(1,1)	(340,1)	(183,1)	(-2,1)	(0,3)	(277,1)	(1,0)	(1,0)	(1,0)	(1,0)	(1,0)	(1,0)	(1,0)	(1,0)	
L1D -475>	(0,3)	(1,0)	(1,0)	(1,0)	(1,0)	(1,0)	(1,0)	(1,0)	(1,0)	(1,0)	(1,0)	(1,0)	(1,0)	(1,0)	(1,0)	(1,0)	
L1D -474>	(62,1)	(0,4)	(129,1)	(197,1)	(18,1)	(1,0)	(1,0)	(1,0)	(1,0)	(1,0)	(1,0)	(1,0)	(1,0)	(1,0)	(1,0)	(1,0)	
L1D -473>	(256,1)	(4,1)	(0,2)	(52,1)	(1,0)	(1,0)	(1,0)	(1,0)	(1,0)	(1,0)	(1,0)	(1,0)	(1,0)	(1,0)	(1,0)	(1,0)	
L1D -472>	(128,1)	(2,1)	(4,1)	(1,0)	(1,0)	(1,0)	(1,0)	(1,0)	(1,0)	(1,0)	(1,0)	(1,0)	(1,0)	(1,0)	(1,0)	(1,0)	
L1D -471>	(1,1)	(0,1)	(262,1)	(1,0)	(1,0)	(1,0)	(1,0)	(1,0)	(1,0)	(1,0)	(1,0)	(1,0)	(1,0)	(1,0)	(1,0)	(1,0)	
L1D -470>	(45,1)	(0,5)	(124,1)	(127,1)	(2,1)	(34,1)	(1,2)	(121,1)	(370,1)	(1,0)	(1,0)	(1,0)	(1,0)	(1,0)	(1,0)	(1,0)	
L1D -469>	(350,1)	(10,1)	(0,1)	(3,4)	(23,1)	(1,0)	(1,0)	(1,0)	(1,0)	(1,0)	(1,0)	(1,0)	(1,0)	(1,0)	(1,0)	(1,0)	
L1D -468>	(20,1)	(0,1)	(69,1)	(479,1)	(103,1)	(1,0)	(1,0)	(1,0)	(1,0)	(1,0)	(1,0)	(1,0)	(1,0)	(1,0)	(1,0)	(1,0)	
L1D -467>	(1,1)	(0,1)	(1,0)	(1,0)	(1,0)	(1,0)	(1,0)	(1,0)	(1,0)	(1,0)	(1,0)	(1,0)	(1,0)	(1,0)	(1,0)	(1,0)	
L1D -466>	(3,10)	(490,1)	(4,1)	(333,1)	(1,0)	(1,0)	(1,0)	(1,0)	(1,0)	(1,0)	(1,0)	(1,0)	(1,0)	(1,0)	(1,0)	(1,0)	
L1D -465>	(2,3)	(50,1)	(133,2)	(5,1)	(0,9)	(386,1)	(1,1)	(1,0)	(1,0)	(1,0)	(1,0)	(1,0)	(1,0)	(1,0)	(1,0)	(1,0)	
L1D -464>	(-1,1)	(17,1)	(0,2)	(2,8)	(132,2)	(1,1)	(4,26)	(1,0)	(1,0)	(1,0)	(1,0)	(1,0)	(1,0)	(1,0)	(1,0)	(1,0)	
L1D -463>	(131,5)	(1,5)	(17,1)	(-1,1)	(0,31)	(4,2)	(8,1)	(1,0)	(1,0)	(1,0)	(1,0)	(1,0)	(1,0)	(1,0)	(1,0)	(1,0)	
L1D -462>	(69,1)	(218,1)	(187,1)	(89,1)	(1,1)	(0,3)	(2,1)	(130,1)	(1,0)	(1,0)	(1,0)	(1,0)	(1,0)	(1,0)	(1,0)	(1,0)	
L1D -461>	(17,1)	(4,8)	(1,1)	(2,4)	(430,1)	(108,1)	(1,0)	(1,0)	(1,0)	(1,0)	(1,0)	(1,0)	(1,0)	(1,0)	(1,0)	(1,0)	
L1D -460>	(0,3)	(1,1)	(125,3)	(128,1)	(34,1)	(382,1)	(1,0)	(1,0)	(1,0)	(1,0)	(1,0)	(1,0)	(1,0)	(1,0)	(1,0)	(1,0)	
L1D -459>	(0,2)	(124,2)	(4,2)	(146,1)	(1,1)	(1,0)	(1,0)	(1,0)	(1,0)	(1,0)	(1,0)	(1,0)	(1,0)	(1,0)	(1,0)	(1,0)	
L1D -458>	(456,2)	(91,1)	(128,3)	(450,1)	(331,1)	(-3,4)	(0,4)	(123,1)	(26,1)	(48,1)	(-6,1)	(1,0)	(1,0)	(1,0)	(1,0)	(1,0)	
L1D -457>	(127,4)	(51,1)	(276,1)	(1,0)	(1,0)	(1,0)	(1,0)	(1,0)	(1,0)	(1,0)	(1,0)	(1,0)	(1,0)	(1,0)	(1,0)	(1,0)	
L1D -456>	(219,2)	(1,2)	(66,1)	(0,1)	(126,3)	(89,1)	(376,1)	(1,0)	(1,0)	(1,0)	(1,0)	(1,0)	(1,0)	(1,0)	(1,0)	(1,0)	
L1D -455>	(68,12)	(54,1)	(2,1)	(88,1)	(0,1)	(-4,1)	(120,1)	(1,0)	(1,0)	(1,0)	(1,0)	(1,0)	(1,0)	(1,0)	(1,0)	(1,0)	
L1D -454>	(0,31)	(1,23)	(108,1)	(79,1)	(50,2)	(327,3)	(454,1)	(57,2)	(1,0)	(1,0)	(1,0)	(1,0)	(1,0)	(1,0)	(1,0)	(1,0)	
L1D -453>	(0,1)	(17,1)	(1,0)	(1,0)	(1,0)	(1,0)	(1,0)	(1,0)	(1,0)	(1,0)	(1,0)	(1,0)	(1,0)	(1,0)	(1,0)	(1,0)	
L1D -452>	(0,1)	(1,2)	(83,1)	(426,1)	(-1,1)	(124,1)	(1,0)	(1,0)	(1,0)	(1,0)	(1,0)	(1,0)	(1,0)	(1,0)	(1,0)	(1,0)	
L1D -451>	(0,76)	(244,1)	(221,1)	(2,2)	(-12,1)	(70,1)	(3,8)	(114,2)	(4,1)	(1,0)	(1,0)	(1,0)	(1,0)	(1,0)	(1,0)	(1,0)	
L1D -450>	(97,1)	(366,1)	(113,3)	(116,1)	(38,1)	(4,1)	(0,5)	(1,1)	(1,0)	(1,0)	(1,0)	(1,0)	(1,0)	(1,0)	(1,0)	(1,0)	
L1D -449>	(68,108)	(2,1)	(0,3)	(386,1)	(5,1)	(117,2)	(1,0)	(1,0)	(1,0)	(1,0)	(1,0)	(1,0)	(1,0)	(1,0)	(1,0)	(1,0)	
L1D -448>	(0,91)	(-3,25)	(68,6)	(1,2)	(4,1)	(31,1)	(106,1)	(57,1)	(69,1)	(116,1)	(114,1)	(438,1)	(1,0)	(1,0)	(1,0)	(1,0)	
L1D -447>	(-1,1)	(1,1)	(-45,38)	(8,1)	(115,2)	(71,1)	(0,1)	(112,1)	(1,0)	(1,0)	(1,0)	(1,0)	(1,0)	(1,0)	(1,0)	(1,0)	
L1D -446>	(114,17)	(77,3)	(0,2)	(449,1)	(4,2)	(278,1)	(-45,1)	(62,1)	(1,2)	(113,1)	(108,1)	(1,0)	(1,0)	(1,0)	(1,0)	(1,0)	
L1D -445>	(0,3)	(68,1)	(113,6)	(112,3)	(114,1)	(1,2)	(458,1)	(110,2)	(5,1)	(-45,1)	(23,1)	(2,1)	(-10,1)	(1,0)	(1,0)	(1,0)	
L1D -444>	(443,1)	(1,2)	(112,8)	(0,6)	(71,1)	(115,8)	(69,2)	(-45,23)	(64,1)	(272,1)	(17,1)	(1,0)	(1,0)	(1,0)	(1,0)	(1,0)	
L1D -443>	(226,1)	(111,11)	(396,1)	(0,7)	(114,18)	(337,1)	(110,3)	(442,1)	(1,1)	(103,1)	(211,1)	(1,0)	(1,0)	(1,0)	(1,0)	(1,0)	
L1D -442>	(419,2)	(443,6)	(442,105)	(215,16)	(421,3)	(108,3)	(110,15)	(220,3)	(441,20)	(439,46)	(436,3)	(339,1)	(0,23)	(-8,3)	(440,3)	(438,9)	
L1D -441>	(212,17)	(104,24)	(-1,1)	(439,6)	(60,1)	(108,1)	(70,1)	(-10,1)	(109,1)	(0,1)	(-2,1)	(1,0)	(1,0)	(1,0)	(1,0)	(1,0)	
L1D -440>	(95,1)	(2,2)	(141,1)	(-1,1)	(3,1)	(1,1)	(0,1)	(77,1)	(-3,1)	(-8,3)	(-2,1)	(63,1)	(1,0)	(1,0)	(1,0)	(1,0)	
L1D -439>	(1,2)	(0,5)	(132,1)	(-4,1)	(35,2)	(1,0)	(1,0)	(1,0)	(1,0)	(1,0)	(1,0)	(1,0)	(1,0)	(1,0)	(1,0)	(1,0)	
L1D -438>	(4,2)	(14,1)	(0,2)	(61,2)	(435,1)	(34,1)	(1,1)	(1,0)	(1,0)	(1,0)	(1,0)	(1,0)	(1,0)	(1,0)	(1,0)	(1,0)	
L1D -437>	(0,8)	(146,5)	(2,23)	(394,1)	(-8,1)	(419,5)	(1,7)	(-2,7)	(266,1)	(423,1)	(29,2)	(1,0)	(1,0)	(1,0)	(1,0)	(1,0)	
L1D -436>	(0,6)	(146,1)	(-1,2)	(256,1)	(73,1)	(-9,1)	(436,1)	(63,3)	(44,1)	(138,1)	(175,1)	(107,1)	(69,1)	(1,0)	(1,0)	(1,0)	
L1D -435>	(-2,2)	(251,3)	(2,2)	(0,6)	(276,1)	(32,1)	(265,1)	(-4,1)	(56,1)	(419,1)	(283,5)	(137,3)	(1,1)	(291,1)	(286,1)	(-6,1)	
L1D -434>	(298,4)	(434,7)	(-2,5)	(106,2)	(91,1)	(2,16)	(0,10)	(1,3)	(136,3)	(-1,3)	(154,2)	(419,4)	(398,1)	(211,1)	(5,2)	(125,1)	
L1D -433>	(5,1)	(0,1)	(16,1)	(328,1)	(1,0)	(1,0)	(1,0)	(1,0)	(1,0)	(1,0)	(1,0)	(1,0)	(1,0)	(1,0)	(1,0)	(1,0)	
L1D -432>	(38,1)	(3,2)	(10,1)	(364,1)	(91,1)	(0,4)	(1,1)	(61,1)	(52,1)	(-20,1)	(2,2)	(26,1)	(1,0)	(1,0)	(1,0)	(1,0)	
L1D -431>	(23,1)	(17,1)	(0,3)	(1,2)	(47,2)	(92,1)	(1,0)	(1,0)	(1,0)	(1,0)	(1,0)	(1,0)	(1,0)	(1,0)	(1,0)	(1,0)	
L1D -430>	(0,1)	(418,1)	(26,1)	(69,1)	(-2,1)	(286,1)	(32,1)	(1,0)	(1,0)	(1,0)	(1,0)	(1,0)	(1,0)	(1,0)	(1,0)	(1,0)	
L1D -429>	(-29,1)	(169,1)	(4,1)	(0,1)	(238,1)	(431,2)	(29,1)	(411,1)	(-16,1)	(1,0)	(1,0)	(1,0)	(1,0)	(1,0)	(1,0)	(1,0)	
L1D -428>	(412,1)	(456,1)	(408,1)	(4,1)	(61,3)	(0,4)	(360,1)	(471,81)	(250,1)	(1,1)	(89,1)	(1,0)	(1,0)	(1,0)	(1,0)	(1,0)	
L1D -427>	(28,125)	(47,1)	(0,3)	(5,5)	(2,1)	(1,2)	(56,1)	(-14,1)	(-5,1)	(382,1)	(1,0)	(1,0)	(1,0)	(1,0)	(1,0)	(1,0)	
L1D -426>	(1,45)	(27,56)	(4,9)	(57,1)	(390,1)	(420,1)	(0,6)	(69,1)	(17,1)	(54,2)	(5,1)	(40,4)	(3,1)	(-47,1)	(406,1)	(37,1)	
L1D -425>	(388,1)	(1,1)	(5,1)	(412,1)	(0,4)	(2,2)	(228,1)	(91,1)	(1,0)	(1,0)	(1,0)	(1,0)	(1,0)	(1,0)	(1,0)	(1,0)	
L1D -424>	(406,1)	(424,2)	(0,3)	(53,1)	(428,1)	(412,1)	(20,1)	(1,1)	(253,1)	(1,0)	(1,0)	(1,0)	(1,0)	(1,0)	(1,0)	(1,0)	
L1D -423>	(1,1)	(0,4)	(-1,1)	(5,1)	(406,1)	(-10,3)	(382,1)	(32,1)	(-2,1)	(1,0)	(1,0)	(1,0)	(1,0)	(1,0)	(1,0)	(1,0)	
L1D -422>	(2,59)	(34,2)	(37,1)	(28,1)	(421,1)	(1,1)	(4,5)	(410,2)	(418,1)	(0,1)	(122,1)	(1,0)	(1,0)	(1,0)	(1,0)	(1,0)	
L1D -421>	(1,3)	(422,3)	(-6,1)	(2,2)	(251,1)	(-16,1)	(1,0)	(1,0)	(1,0)	(1,0)	(1,0)	(1,0)	(1,0)	(1,0)	(1,0)	(1,0)	
L1D -420>	(0,6)	(421,4)	(402,2)	(394,1)	(420,2)	(388,1)	(2,1)	(53,1)	(-4,1)	(383,1)	(248,1)	(1,0)	(1,0)	(1,0)	(1,0)	(1,0)	
L1D -419>	(1,3)	(11,1)	(5,1)	(0,2)	(419,5)	(2,1)	(26,1)	(56,1)	(420,2)	(1,0)	(1,0)	(1,0)	(1,0)	(1,0)	(1,0)	(1,0)	
L1D -418>	(45,1)	(0,3)	(34,1)	(418,9)	(376,1)	(306,1)	(46,1)	(1,3)	(392,1)	(419,3)	(3,1)	(326,1)	(160,1)	(94,1)	(1,0)	(1,0)	
L1D -417>	(-10,78)	(0,0)	(417,0)	(8,0)	(1,0)	(1,0)	(1,0)	(1,0)	(1,0)	(1,0)	(1,0)	(1,0)	(1,0)	(1,0)	(1,0)	(1,0)	
L1D -416>	(0,1)	(415,1)	(53,1)	(416,6)	(5,1)	(404,1)	(58,1)	(-20,1)	(417,2)	(324,1)	(-46,1)	(1,0)	(1,0)	(1,0)	(1,0)	(1,0)	
L1D -415>	(1,3)	(0,5)	(2,2)	(36,1)	(415,3)	(362,1)	(38,1)	(445,1)	(-1,1)	(62,1)	(414,1)	(1,0)	(1,0)	(1,0)	(1,0)	(1,0)	
L1D -414>	(414,5)	(402,1)	(61,2)	(1,3)	(0,3)	(238,1)	(17,1)	(118,1)	(34,1)	(2,2)	(11,1)	(38,1)	(5,2)	(-28,1)	(100,1)	(53,1)	
L1D -413>	(1,6)	(2,6)	(0,4)	(413,5)	(-7,1)	(412,1)	(-1,1)	(153,1)	(414,1)	(11,3)	(1,0)	(1,0)	(1,0)	(1,0)	(1,0)	(1,0)	
L1D -412>	(61,1)	(0,9)	(310,1)	(412,11)	(-1,1)	(413,2)	(200,1)	(183,1)	(84,1)	(146,1)	(1,1)	(394,4)	(5,1)	(409,1)	(81,1)	(-62,1)	
L1D -411>	(0,123)	(160,1)	(-7,10)	(408,0)	(1,0)	(1,0)	(1,0)	(1,0)	(1,0)	(1,0)	(1,0)	(1,0)	(1,0)	(1,0)	(1,0)	(1,0)	
L1D -410>	(410,9)	(53,1)	(0,7)	(1,2)	(146,1)	(4,1)	(5,1)	(429,1)	(420,1)	(103,1)	(3,1)	(-10,1)	(2,1)	(256,1)	(-1,1)	(1,0)	
L1D -409>	(0,5)	(410,1)	(7,1)	(15,1)	(2,1)	(409,4)	(366,1)	(-1,1)	(1,2)	(1,0)	(1,0)	(1,0)	(1,0)	(1,0)	(1,0)	(1,0)	
L1D -408>	(390,3)	(0,8)	(409,4)	(-49,1)	(1,2)	(344,1)	(37,1)	(38,1)	(-1,1)	(408,1)	(23,1)	(411,1)	(1,0)	(1,0)	(1,0)	(1,0)	
L1D -407>	(1,5)	(56,2)	(0,4)	(388,1)	(454,1)	(-7,1)	(407,4)	(-30,1)	(198,1)	(2,1)	(220,1)	(-13,1)	(82,1)	(1,0)	(1,0)	(1,0)	
L1D -406>	(-1,1)	(124,1)	(394,9)	(420,2)	(0,9)	(1,4)	(397,1)	(458,1)	(406,5)	(407,1)	(10,1)	(268,1)	(1,0)	(1,0)	(1,0)	(1,0)	
L1D -405>	(1,4)	(0,15)	(133,3)	(405,5)	(385,1)	(2,3)	(106,3)	(406,2)	(17,1)	(5,2)	(-30,1)	(1,0)	(1,0)	(1,0)	(1,0)	(1,0)	
L1D -404>	(-1,1)	(405,3)	(8,1)	(392,4)	(0,7)	(382,2)	(-10,1)	(2,2)	(1,1)	(404,1)	(1,0)	(1,0)	(1,0)	(1,0)	(1,0)	(1,0)	
L1D -403>	(1,2)	(255,1)	(403,9)	(0,3)	(232,7)	(123,1)	(105,5)	(97,1)	(104,1)	(15,1)	(27,1)	(368,1)	(61,1)	(75,1)	(409,1)	(-10,1)	
L1D -402>	(0,8)	(238,1)	(-70,1)	(68,1)	(1,5)	(4,2)	(402,4)	(-2,1)	(396,1)	(-1,2)	(-42,6)	(382,1)	(388,1)	(6,1)	(390,1)	(1,0)	
L1D -401>	(1,3)	(401,5)	(-10,3)	(11,1)	(2,2)	(0,1)	(389,1)	(56,1)	(1,0)	(1,0)	(1,0)	(1,0)	(1,0)	(1,0)	(1,0)	(1,0)	
L1D -400>	(400,6)	(0,13)	(1,3)	(-1,1)	(2,1)	(146,1)	(283,2)	(401,4)	(374,1)	(3,2)	(-42,2)	(406,1)	(131,1)	(-86,1)	(260,1)	(399,1)	
L1D -399>	(1,2)	(5,1)	(399,3)	(304,1)	(400,1)	(434,1)	(17,1)	(0,3)	(-27,30)	(16,1)	(396,1)	(-1,1)	(1,0)	(1,0)	(1,0)	(1,0)	
L1D -398>	(-84,1)	(-95,1)	(502,1)	(-44,4)	(0,16)	(398,10)	(1,3)	(386,1)	(406,1)	(32,1)	(17,1)	(85,1)	(388,1)	(84,1)	(-36,1)	(395,1)	
L1D -397>	(398,2)	(1,1)	(0,2)	(397,3)	(2,1)	(250,1)	(26,1)	(4,1)	(-43,1)	(1,0)	(1,0)	(1,0)	(1,0)	(1,0)	(1,0)	(1,0)	
L1D -396>	(0,7)	(28,1)	(5,2)	(1,3)	(396,8)	(397,2)	(2,1)	(-14,1)	(-58,1)	(-1,1)	(-65,1)	(260,1)	(424,1)	(1,0)	(1,0)	(1,0)	
L1D -395>	(1,2)	(83,1)	(395,4)	(2,1)	(0,2)	(17,1)	(27,1)	(187,1)	(191,1)	(5,1)	(-1,1)	(-61,1)	(1,0)	(1,0)	(1,0)	(1,0)	
L1D -394>	(37,1)	(376,3)	(0,8)	(71,1)	(-1,2)	(408,1)	(3,1)	(330,1)	(1,2)	(413,1)	(394,2)	(-78,1)	(1,0)	(1,0)	(1,0)	(1,0)	
L1D -393>	(1,1)	(393,4)	(2,4)	(0,2)	(422,1)	(359,1)	(5,1)	(-32,1)	(-16,1)	(187,1)	(1,0)	(1,0)	(1,0)	(1,0)	(1,0)	(1,0)	
L1D -392>	(393,3)	(392,2)	(0,2)	(184,1)	(2,4)	(160,1)	(-66,1)	(1,3)	(5,2)	(391,1)	(46,1)	(-78,1)	(252,1)	(380,1)	(1,0)	(1,0)	
L1D -391>	(1,2)	(29,1)	(392,1)	(391,2)	(-60,2)	(1,0)	(1,0)	(1,0)	(1,0)	(1,0)	(1,0)	(1,0)	(1,0)	(1,0)	(1,0)	(1,0)	
L1D -390>	(-2,4)	(389,2)	(0,17)	(-10,3)	(-23,3)	(191,3)	(390,5)	(5,1)	(2,1)	(392,1)	(-52,1)	(1,3)	(258,1)	(-1,1)	(386,1)	(324,1)	
L1D -389>	(0,4)	(-4,1)	(1,2)	(390,2)	(414,1)	(-69,1)	(-53,1)	(-1,1)	(1,0)	(1,0)	(1,0)	(1,0)	(1,0)	(1,0)	(1,0)	(1,0)	
L1D -388>	(0,4)	(126,1)	(380,3)	(374,1)	(388,1)	(389,4)	(376,1)	(352,1)	(1,1)	(1,0)	(1,0)	(1,0)	(1,0)	(1,0)	(1,0)	(1,0)	
L1D -387>	(1,3)	(2,1)	(114,21)	(-28,1)	(388,1)	(387,2)	(152,1)	(-10,1)	(56,2)	(-41,1)	(0,2)	(-16,1)	(386,1)	(414,1)	(1,0)	(1,0)	
L1D -386>	(386,104)	(0,4)	(-31,11)	(387,0)	(-1,0)	(1,0)	(1,0)	(1,0)	(1,0)	(1,0)	(1,0)	(1,0)	(1,0)	(1,0)	(1,0)	(1,0)	
L1D -385>	(-6,1)	(386,1)	(385,2)	(2,2)	(150,1)	(0,3)	(1,1)	(54,1)	(382,1)	(1,0)	(1,0)	(1,0)	(1,0)	(1,0)	(1,0)	(1,0)	
L1D -384>	(1,2)	(372,2)	(406,1)	(2,1)	(403,2)	(68,1)	(26,1)	(385,2)	(410,1)	(1,0)	(1,0)	(1,0)	(1,0)	(1,0)	(1,0)	(1,0)	
L1D -383>	(0,4)	(90,2)	(26,1)	(383,4)	(382,1)	(-1,1)	(1,0)	(1,0)	(1,0)	(1,0)	(1,0)	(1,0)	(1,0)	(1,0)	(1,0)	(1,0)	
L1D -382>	(394,1)	(388,2)	(0,5)	(382,3)	(26,1)	(32,1)	(146,1)	(-9,1)	(-94,1)	(1,0)	(1,0)	(1,0)	(1,0)	(1,0)	(1,0)	(1,0)	
L1D -381>	(0,5)	(114,110)	(152,7)	(357,1)	(3,1)	(126,1)	(82,2)	(-66,1)	(29,1)	(44,1)	(85,1)	(414,1)	(-1,1)	(382,1)	(-4,1)	(1,0)	
L1D -380>	(380,4)	(-1,1)	(381,2)	(0,3)	(6,2)	(-38,1)	(1,3)	(342,1)	(-32,1)	(24,1)	(218,1)	(1,0)	(1,0)	(1,0)	(1,0)	(1,0)	
L1D -379>	(-5,1)	(0,2)	(1,2)	(186,1)	(379,1)	(-21,1)	(2,1)	(-14,1)	(15,1)	(-1,1)	(1,0)	(1,0)	(1,0)	(1,0)	(1,0)	(1,0)	
L1D -378>	(3,2)	(-1,1)	(0,5)	(160,1)	(-98,1)	(378,2)	(128,1)	(4,1)	(1,1)	(1,0)	(1,0)	(1,0)	(1,0)	(1,0)	(1,0)	(1,0)	
L1D -377>	(1,1)	(0,4)	(5,1)	(376,1)	(366,1)	(344,1)	(110,4)	(3,1)	(377,3)	(-7,1)	(14,1)	(378,1)	(1,0)	(1,0)	(1,0)	(1,0)	
L1D -376>	(0,7)	(376,1)	(377,2)	(1,1)	(364,1)	(382,1)	(168,1)	(1,0)	(1,0)	(1,0)	(1,0)	(1,0)	(1,0)	(1,0)	(1,0)	(1,0)	
L1D -375>	(2,1)	(1,3)	(338,1)	(87,1)	(375,3)	(0,5)	(295,1)	(124,1)	(448,1)	(1,0)	(1,0)	(1,0)	(1,0)	(1,0)	(1,0)	(1,0)	
L1D -374>	(6,2)	(1,6)	(18,1)	(30,1)	(50,2)	(2,1)	(0,3)	(1,0)	(1,0)	(1,0)	(1,0)	(1,0)	(1,0)	(1,0)	(1,0)	(1,0)	
L1D -373>	(1,2)	(0,3)	(121,1)	(6,1)	(373,2)	(2,1)	(4,1)	(5,1)	(1,0)	(1,0)	(1,0)	(1,0)	(1,0)	(1,0)	(1,0)	(1,0)	
L1D -372>	(3,1)	(0,5)	(2,3)	(-50,1)	(20,1)	(5,3)	(1,2)	(126,1)	(482,1)	(-45,1)	(1,0)	(1,0)	(1,0)	(1,0)	(1,0)	(1,0)	
L1D -371>	(72,10)	(1,5)	(-1,1)	(0,6)	(371,4)	(127,1)	(60,1)	(291,1)	(195,1)	(56,1)	(32,1)	(416,1)	(1,0)	(1,0)	(1,0)	(1,0)	
L1D -370>	(6,1)	(125,1)	(370,4)	(1,3)	(25,29)	(0,2)	(8,1)	(192,1)	(3,1)	(2,1)	(1,0)	(1,0)	(1,0)	(1,0)	(1,0)	(1,0)	
L1D -369>	(39,1)	(2,4)	(4,1)	(0,1)	(369,2)	(-7,1)	(412,1)	(-1,1)	(1,0)	(1,0)	(1,0)	(1,0)	(1,0)	(1,0)	(1,0)	(1,0)	
L1D -368>	(0,4)	(368,3)	(-1,1)	(10,1)	(1,2)	(98,1)	(1,0)	(1,0)	(1,0)	(1,0)	(1,0)	(1,0)	(1,0)	(1,0)	(1,0)	(1,0)	
L1D -367>	(0,2)	(6,1)	(5,3)	(-3,1)	(24,1)	(22,1)	(62,1)	(1,2)	(-7,1)	(17,2)	(196,1)	(2,3)	(368,1)	(108,1)	(1,0)	(1,0)	
L1D -366>	(6,3)	(385,1)	(3,6)	(5,2)	(0,4)	(-18,1)	(320,1)	(78,3)	(1,2)	(4,1)	(370,1)	(418,1)	(120,1)	(1,0)	(1,0)	(1,0)	
L1D -365>	(60,14)	(365,4)	(369,2)	(-1,2)	(72,5)	(0,5)	(366,3)	(1,1)	(-80,1)	(2,2)	(1,0)	(1,0)	(1,0)	(1,0)	(1,0)	(1,0)	
L1D -364>	(52,16)	(50,3)	(51,7)	(363,2)	(353,1)	(364,4)	(49,1)	(0,3)	(1,4)	(78,1)	(352,1)	(1,0)	(1,0)	(1,0)	(1,0)	(1,0)	
L1D -363>	(1,4)	(51,17)	(-1,1)	(18,1)	(3,1)	(361,2)	(75,63)	(355,1)	(5,2)	(0,5)	(367,2)	(-2,15)	(72,15)	(80,1)	(8,1)	(104,1)	
L1D -362>	(362,4)	(1,3)	(50,7)	(0,6)	(341,2)	(52,1)	(85,1)	(51,1)	(27,3)	(230,1)	(17,1)	(-8,1)	(72,3)	(-2,1)	(400,1)	(32,1)	
L1D -361>	(1,6)	(362,2)	(343,2)	(44,1)	(49,1)	(354,1)	(0,3)	(361,1)	(107,1)	(91,1)	(62,2)	(395,1)	(2,1)	(82,1)	(358,1)	(59,1)	
L1D -360>	(48,38)	(0,5)	(51,1)	(40,1)	(64,5)	(354,1)	(88,1)	(1,5)	(2,1)	(-2,9)	(47,33)	(359,10)	(-1,6)	(358,6)	(36,1)	(46,1)	
L1D -359>	(60,78)	(1,1)	(47,24)	(0,3)	(359,1)	(6,1)	(-137,0)	(-1,2)	(43,0)	(358,1)	(357,3)	(46,1)	(356,0)	(351,0)	(-3,0)	(341,0)	
L1D -358>	(355,2)	(46,16)	(358,3)	(364,2)	(363,3)	(45,1)	(1,5)	(234,1)	(60,4)	(362,2)	(41,1)	(354,3)	(47,4)	(176,1)	(0,2)	(30,1)	
L1D -357>	(45,3)	(220,2)	(352,1)	(-2,8)	(357,1)	(1,2)	(6,1)	(350,2)	(47,4)	(48,2)	(0,4)	(-8,1)	(46,2)	(42,3)	(5,3)	(23,1)	
L1D -356>	(44,3)	(38,1)	(343,2)	(218,3)	(1,3)	(357,1)	(192,1)	(220,3)	(24,2)	(-18,1)	(47,8)	(347,1)	(41,1)	(-9,1)	(0,9)	(48,2)	
L1D -355>	(1,3)	(43,5)	(56,3)	(110,2)	(123,2)	(35,2)	(-14,1)	(359,3)	(355,3)	(364,1)	(356,1)	(2,2)	(353,2)	(0,6)	(347,1)	(47,3)	
L1D -354>	(360,1)	(1,12)	(220,3)	(-1,1)	(364,1)	(354,4)	(95,1)	(69,1)	(45,5)	(352,1)	(-4,1)	(0,6)	(359,6)	(44,2)	(217,1)	(278,1)	
L1D -353>	(360,5)	(6,1)	(1,5)	(342,1)	(354,1)	(24,1)	(0,3)	(-16,1)	(331,1)	(64,1)	(123,1)	(122,1)	(47,3)	(343,1)	(2,1)	(107,1)	
L1D -352>	(162,1)	(91,1)	(123,2)	(-2,38)	(110,2)	(-1,9)	(353,2)	(1,3)	(354,1)	(4,1)	(120,1)	(6,2)	(357,2)	(339,3)	(-40,1)	(0,3)	
L1D -351>	(1,5)	(20,2)	(217,2)	(24,2)	(3,2)	(350,2)	(352,3)	(335,1)	(332,1)	(18,1)	(0,3)	(44,2)	(351,3)	(340,1)	(360,4)	(43,1)	
L1D -350>	(-3,1)	(118,1)	(2,2)	(44,2)	(364,1)	(343,1)	(119,1)	(0,4)	(39,1)	(48,1)	(350,1)	(89,1)	(360,2)	(353,1)	(349,1)	(-80,1)	
L1D -349>	(338,2)	(300,1)	(351,1)	(24,1)	(0,6)	(81,1)	(-108,1)	(328,3)	(325,1)	(119,1)	(350,1)	(1,1)	(333,1)	(349,2)	(37,2)	(89,2)	
L1D -348>	(118,2)	(360,2)	(36,1)	(0,8)	(349,1)	(-64,1)	(2,1)	(338,1)	(351,5)	(111,1)	(348,2)	(26,2)	(6,1)	(-74,1)	(1,2)	(136,1)	
L1D -347>	(35,2)	(4,1)	(113,1)	(1,1)	(5,1)	(109,1)	(364,1)	(-65,1)	(347,4)	(0,6)	(84,1)	(341,1)	(360,3)	(2,1)	(332,1)	(349,1)	
L1D -346>	(341,24)	(4,104)	(0,13)	(52,1)	(345,0)	(-42,0)	(1,0)	(1,0)	(1,0)	(1,0)	(1,0)	(1,0)	(1,0)	(1,0)	(1,0)	(1,0)	
L1D -345>	(2,5)	(1,3)	(0,5)	(-47,16)	(44,2)	(34,1)	(-129,1)	(22,14)	(23,22)	(120,1)	(325,1)	(-22,1)	(21,1)	(222,1)	(322,1)	(328,1)	
L1D -344>	(0,10)	(113,2)	(33,1)	(363,1)	(26,1)	(35,2)	(344,3)	(347,3)	(4,1)	(442,1)	(360,2)	(34,1)	(145,1)	(290,1)	(17,2)	(-2,2)	
L1D -343>	(1,1)	(338,108)	(-3,43)	(219,1)	(6,1)	(128,0)	(207,0)	(343,2)	(0,3)	(-70,0)	(1,0)	(1,0)	(1,0)	(1,0)	(1,0)	(1,0)	
L1D -342>	(-4,28)	(20,1)	(1,7)	(-112,1)	(-1,1)	(114,2)	(0,6)	(332,1)	(337,24)	(324,1)	(342,5)	(343,1)	(-20,1)	(326,1)	(-12,1)	(117,1)	
L1D -341>	(0,60)	(341,18)	(5,58)	(39,1)	(346,1)	(4,82)	(48,0)	(219,1)	(34,0)	(6,0)	(1,0)	(1,0)	(1,0)	(1,0)	(1,0)	(1,0)	
L1D -340>	(123,2)	(3,3)	(0,19)	(219,47)	(113,1)	(110,9)	(108,5)	(111,12)	(4,3)	(209,14)	(115,1)	(118,10)	(122,5)	(218,6)	(1,4)	(109,1)	
L1D -339>	(23,3)	(336,2)	(27,6)	(115,3)	(218,5)	(1,5)	(-1,2)	(0,5)	(337,1)	(338,4)	(4,2)	(342,1)	(26,20)	(-20,1)	(22,2)	(360,5)	
L1D -338>	(1,15)	(111,3)	(110,1)	(-3,64)	(338,3)	(4,0)	(219,16)	(337,3)	(0,2)	(74,0)	(6,0)	(26,4)	(25,2)	(343,11)	(335,1)	(32,0)	
L1D -337>	(342,89)	(104,2)	(117,114)	(-4,31)	(167,13)	(113,4)	(114,93)	(122,2)	(219,7)	(111,8)	(110,11)	(216,1)	(200,2)	(-113,1)	(108,3)	(-114,1)	
L1D -336>	(341,6)	(108,2)	(50,2)	(0,7)	(4,1)	(333,1)	(313,2)	(110,44)	(338,3)	(1,6)	(25,4)	(37,1)	(24,24)	(337,2)	(220,2)	(-28,1)	
L1D -335>	(115,5)	(120,30)	(123,11)	(220,49)	(108,127)	(214,2)	(111,64)	(219,84)	(213,3)	(217,2)	(216,3)	(104,2)	(-2,1)	(119,1)	(112,3)	(197,4)	
L1D -334>	(219,11)	(210,1)	(218,12)	(117,5)	(119,1)	(3,0)	(108,18)	(107,17)	(110,67)	(111,4)	(211,5)	(213,2)	(105,12)	(220,10)	(217,2)	(113,2)	
L1D -333>	(123,2)	(0,10)	(-1,3)	(124,34)	(105,2)	(113,3)	(110,2)	(120,1)	(219,1)	(331,1)	(112,1)	(35,1)	(108,12)	(-36,1)	(1,5)	(313,3)	
L1D -332>	(1,66)	(329,62)	(335,36)	(0,12)	(113,15)	(201,10)	(195,1)	(109,11)	(-2,30)	(-3,13)	(110,28)	(105,28)	(117,25)	(111,98)	(108,45)	(114,20)	
L1D -331>	(0,40)	(113,43)	(332,2)	(334,103)	(107,49)	(328,111)	(114,36)	(108,12)	(105,24)	(-3,56)	(110,73)	(123,10)	(337,21)	(111,75)	(122,9)	(3,125)	
L1D -330>	(4,4)	(120,9)	(5,4)	(0,8)	(110,3)	(192,3)	(1,6)	(113,3)	(-2,5)	(18,4)	(90,4)	(20,1)	(330,7)	(116,1)	(111,3)	(15,3)	
L1D -329>	(221,14)	(117,60)	(102,3)	(108,12)	(111,110)	(191,20)	(328,6)	(110,83)	(113,11)	(121,11)	(0,6)	(-114,10)	(329,27)	(192,27)	(119,3)	(-115,3)	
L1D -328>	(15,70)	(110,3)	(184,0)	(22,54)	(1,0)	(4,1)	(328,2)	(120,4)	(214,0)	(313,1)	(16,0)	(327,0)	(114,1)	(0,2)	(-77,0)	(119,0)	
L1D -327>	(210,2)	(24,1)	(313,3)	(325,2)	(0,87)	(191,3)	(14,3)	(15,5)	(317,1)	(29,1)	(117,1)	(47,1)	(6,1)	(16,1)	(56,0)	(192,0)	
L1D -326>	(-9,3)	(110,65)	(326,13)	(118,3)	(313,8)	(14,1)	(111,97)	(191,8)	(107,47)	(221,14)	(329,5)	(0,13)	(113,32)	(117,21)	(108,13)	(1,4)	
L1D -325>	(194,2)	(0,14)	(221,28)	(313,2)	(104,36)	(58,1)	(328,1)	(332,1)	(13,83)	(-15,1)	(110,26)	(-14,27)	(107,18)	(111,21)	(60,5)	(-6,1)	
L1D -324>	(322,1)	(12,3)	(0,11)	(104,1)	(1,4)	(15,1)	(323,6)	(313,7)	(-21,5)	(-46,1)	(-1,4)	(324,1)	(-8,2)	(110,2)	(116,1)	(-7,3)	
L1D -323>	(0,12)	(11,7)	(4,1)	(111,4)	(110,11)	(313,6)	(-9,1)	(-1,13)	(2,35)	(323,2)	(214,36)	(1,3)	(71,1)	(113,6)	(13,1)	(10,3)	
L1D -322>	(1,2)	(-4,6)	(0,10)	(191,4)	(10,12)	(313,4)	(322,2)	(107,4)	(86,1)	(24,1)	(-36,1)	(319,1)	(-1,1)	(-23,2)	(-2,1)	(240,1)	
L1D -321>	(1,5)	(111,5)	(0,11)	(313,1)	(120,1)	(336,1)	(319,1)	(321,1)	(331,2)	(214,74)	(315,1)	(108,1)	(-3,8)	(-2,2)	(49,2)	(24,2)	
L1D -320>	(19,2)	(320,5)	(4,2)	(1,2)	(191,2)	(192,4)	(313,1)	(0,17)	(-40,1)	(323,1)	(45,2)	(-10,1)	(20,1)	(8,4)	(117,1)	(112,1)	
L1D -319>	(4,4)	(-2,4)	(-18,1)	(322,1)	(0,6)	(318,3)	(20,3)	(316,1)	(24,1)	(-1,2)	(18,3)	(319,2)	(340,1)	(-15,1)	(6,2)	(317,3)	
L1D -318>	(110,3)	(313,4)	(323,1)	(4,4)	(-20,1)	(0,20)	(8,4)	(79,1)	(5,1)	(52,1)	(318,5)	(3,1)	(-1,1)	(62,3)	(1,2)	(26,1)	
L1D -317>	(6,6)	(313,13)	(23,2)	(2,3)	(-42,1)	(319,2)	(7,3)	(315,5)	(0,22)	(314,11)	(-46,1)	(24,1)	(316,11)	(1,8)	(-41,1)	(330,1)	
L1D -316>	(2,97)	(320,8)	(311,1)	(0,8)	(313,51)	(297,1)	(1,108)	(310,6)	(4,7)	(5,1)	(3,3)	(348,1)	(-16,3)	(314,8)	(-44,3)	(319,1)	
L1D -315>	(192,5)	(316,6)	(3,42)	(-45,9)	(309,4)	(311,11)	(303,4)	(-41,3)	(299,3)	(-25,3)	(314,3)	(0,3)	(-49,4)	(315,6)	(310,1)	(1,3)	
L1D -314>	(2,14)	(61,2)	(311,4)	(313,5)	(312,8)	(316,3)	(5,13)	(299,2)	(304,8)	(1,8)	(310,2)	(-13,2)	(309,6)	(46,1)	(308,5)	(0,11)	
L1D -313>	(0,13)	(313,94)	(-2,12)	(324,1)	(6,3)	(314,27)	(309,12)	(311,51)	(305,8)	(317,4)	(1,12)	(-19,2)	(308,9)	(298,7)	(312,18)	(-26,9)	
L1D -312>	(7,5)	(-48,20)	(-52,2)	(311,76)	(313,48)	(308,34)	(310,75)	(300,16)	(316,41)	(3,23)	(318,20)	(309,50)	(326,14)	(315,74)	(323,12)	(10,10)	
L1D -311>	(-6,4)	(89,64)	(311,5)	(308,3)	(313,7)	(294,4)	(-1,62)	(-50,1)	(-37,4)	(-27,10)	(1,3)	(314,13)	(309,3)	(318,5)	(-48,5)	(290,5)	
L1D -310>	(312,24)	(111,2)	(313,16)	(-26,3)	(4,4)	(-2,97)	(309,9)	(302,3)	(311,8)	(304,9)	(314,4)	(315,4)	(3,3)	(322,6)	(1,7)	(-51,1)	
L1D -309>	(6,3)	(309,127)	(303,1)	(1,3)	(3,3)	(0,21)	(316,10)	(-48,10)	(-3,18)	(45,2)	(312,2)	(305,3)	(-52,3)	(-94,2)	(310,6)	(307,4)	
L1D -308>	(330,4)	(311,5)	(331,2)	(0,5)	(-28,1)	(299,3)	(312,9)	(319,3)	(317,1)	(192,3)	(308,100)	(293,1)	(-2,3)	(-4,3)	(309,1)	(-35,1)	
L1D -307>	(310,1)	(191,3)	(-27,3)	(-5,5)	(-2,1)	(51,1)	(0,2)	(320,1)	(312,3)	(-48,1)	(-4,2)	(311,2)	(309,1)	(316,1)	(307,109)	(26,1)	
L1D -306>	(0,84)	(16,17)	(-42,0)	(306,11)	(-6,0)	(317,0)	(411,0)	(1,0)	(1,0)	(1,0)	(1,0)	(1,0)	(1,0)	(1,0)	(1,0)	(1,0)	
L1D -305>	(306,9)	(307,3)	(0,14)	(311,3)	(-61,1)	(1,5)	(321,7)	(24,5)	(26,1)	(43,3)	(293,4)	(310,2)	(322,2)	(-7,4)	(305,97)	(308,5)	
L1D -304>	(323,8)	(-8,4)	(5,1)	(0,18)	(14,1)	(-24,1)	(1,2)	(305,3)	(20,5)	(311,10)	(-6,2)	(-2,1)	(306,3)	(302,1)	(4,3)	(304,44)	
L1D -303>	(-20,2)	(-9,9)	(305,2)	(6,1)	(3,2)	(306,1)	(323,4)	(0,11)	(24,2)	(311,4)	(-42,1)	(-36,2)	(-48,2)	(-128,1)	(-1,2)	(308,2)	
L1D -302>	(1,5)	(0,14)	(311,3)	(-35,2)	(-6,1)	(-103,1)	(50,1)	(4,1)	(309,1)	(-10,8)	(310,1)	(354,1)	(304,2)	(-2,1)	(312,3)	(19,1)	
L1D -301>	(2,2)	(6,6)	(0,11)	(-4,9)	(-11,6)	(-10,1)	(303,3)	(306,3)	(304,2)	(276,1)	(294,1)	(311,5)	(308,1)	(296,1)	(5,1)	(-13,1)	
L1D -300>	(-1,2)	(6,1)	(301,2)	(100,1)	(-38,1)	(-12,6)	(311,3)	(1,3)	(124,1)	(0,11)	(146,1)	(63,1)	(62,1)	(305,2)	(-10,2)	(48,1)	
L1D -299>	(1,3)	(321,71)	(327,3)	(299,6)	(-2,4)	(-13,5)	(2,2)	(310,3)	(14,4)	(283,3)	(-3,3)	(311,8)	(-108,3)	(-172,1)	(0,13)	(-106,2)	
L1D -298>	(434,7)	(-105,9)	(298,9)	(0,25)	(-14,6)	(-1,2)	(1,1)	(296,4)	(301,4)	(127,8)	(297,1)	(226,1)	(110,1)	(2,1)	(120,1)	(-106,1)	
L1D -297>	(26,8)	(-20,2)	(0,13)	(24,7)	(297,7)	(-15,5)	(311,4)	(6,5)	(225,1)	(295,5)	(-43,1)	(-2,1)	(2,1)	(-1,2)	(296,1)	(49,1)	
L1D -296>	(0,21)	(75,12)	(297,1)	(146,1)	(296,20)	(1,1)	(-16,3)	(298,1)	(24,1)	(216,1)	(-138,4)	(152,2)	(4,2)	(299,1)	(19,4)	(-12,2)	
L1D -295>	(0,9)	(1,3)	(6,10)	(77,1)	(258,2)	(19,3)	(-4,1)	(18,1)	(2,1)	(47,2)	(297,3)	(-17,8)	(295,127)	(293,5)	(324,2)	(272,1)	
L1D -294>	(1,2)	(297,2)	(-50,1)	(0,12)	(311,4)	(295,4)	(20,1)	(14,12)	(390,1)	(294,51)	(26,1)	(4,1)	(2,2)	(-2,1)	(67,35)	(76,30)	
L1D -293>	(6,8)	(0,18)	(-19,3)	(26,2)	(-20,4)	(24,9)	(19,1)	(441,1)	(1,6)	(-2,1)	(-1,5)	(74,1)	(293,52)	(291,2)	(297,1)	(17,1)	
L1D -292>	(0,14)	(293,5)	(-1,7)	(6,6)	(19,7)	(20,3)	(1,4)	(2,1)	(295,3)	(4,1)	(297,1)	(76,21)	(292,43)	(69,31)	(67,17)	(290,5)	
L1D -291>	(107,1)	(276,1)	(0,10)	(1,1)	(20,3)	(-20,5)	(32,1)	(291,92)	(-21,3)	(292,3)	(293,2)	(89,1)	(19,2)	(311,2)	(289,1)	(35,1)	
L1D -290>	(2,7)	(290,58)	(1,3)	(-14,1)	(0,14)	(11,82)	(295,2)	(-22,3)	(-2,1)	(47,2)	(293,1)	(130,3)	(309,1)	(5,1)	(20,3)	(70,28)	
L1D -289>	(2,2)	(6,2)	(0,10)	(41,2)	(-22,2)	(-20,1)	(1,3)	(24,3)	(289,10)	(290,1)	(16,1)	(5,1)	(-1,1)	(211,10)	(-23,1)	(248,1)	
L1D -288>	(120,1)	(0,14)	(6,2)	(20,2)	(105,125)	(68,1)	(1,5)	(-20,2)	(288,1)	(184,1)	(306,1)	(-1,1)	(5,1)	(14,1)	(4,2)	(211,49)	
L1D -287>	(16,7)	(211,64)	(105,37)	(0,25)	(286,1)	(283,1)	(24,4)	(287,1)	(2,3)	(18,1)	(-14,1)	(6,4)	(126,1)	(422,1)	(26,1)	(262,1)	
L1D -286>	(286,2)	(2,4)	(289,5)	(211,65)	(0,21)	(1,1)	(20,7)	(19,1)	(288,1)	(105,1)	(283,1)	(215,1)	(24,1)	(292,1)	(436,1)	(207,1)	
L1D -285>	(-3,4)	(6,7)	(3,10)	(0,14)	(2,2)	(24,4)	(285,3)	(242,1)	(-2,1)	(1,4)	(37,8)	(204,1)	(13,1)	(211,15)	(28,1)	(289,1)	
L1D -284>	(0,15)	(211,18)	(284,1)	(-18,1)	(19,5)	(105,20)	(20,8)	(-160,1)	(1,39)	(28,1)	(-14,1)	(289,2)	(8,1)	(6,2)	(-1,1)	(282,1)	
L1D -283>	(211,23)	(1,1)	(283,2)	(-3,40)	(268,1)	(-2,95)	(19,2)	(105,36)	(238,1)	(0,18)	(285,4)	(334,1)	(-1,4)	(-34,1)	(6,1)	(272,1)	
L1D -282>	(211,11)	(271,3)	(290,4)	(14,2)	(-1,2)	(221,5)	(19,14)	(20,5)	(-2,4)	(105,2)	(299,1)	(285,1)	(0,45)	(145,1)	(1,5)	(283,1)	
L1D -281>	(1,3)	(211,5)	(6,6)	(220,5)	(221,19)	(0,14)	(270,2)	(105,33)	(24,8)	(271,2)	(4,2)	(26,1)	(-1,1)	(285,1)	(76,1)	(-20,2)	
L1D -280>	(0,19)	(220,15)	(-48,5)	(-20,4)	(12,2)	(221,16)	(6,2)	(278,1)	(242,1)	(105,1)	(304,1)	(280,1)	(4,1)	(283,4)	(-34,1)	(2,2)	
L1D -279>	(-11,126)	(1,2)	(220,3)	(0,7)	(26,1)	(24,2)	(283,3)	(219,2)	(6,1)	(221,9)	(8,6)	(105,3)	(269,0)	(172,0)	(256,1)	(-20,0)	
L1D -278>	(16,3)	(-2,3)	(221,22)	(220,10)	(-20,4)	(2,3)	(20,8)	(219,5)	(268,5)	(218,5)	(-6,3)	(0,10)	(19,9)	(272,2)	(1,1)	(283,3)	
L1D -277>	(0,76)	(277,3)	(273,33)	(240,1)	(85,0)	(-20,0)	(3,0)	(258,0)	(272,0)	(24,0)	(1,0)	(1,0)	(1,0)	(1,0)	(1,0)	(1,0)	
L1D -276>	(2,8)	(219,11)	(220,12)	(274,3)	(14,3)	(0,15)	(6,5)	(20,13)	(4,3)	(276,4)	(279,7)	(19,15)	(8,3)	(1,3)	(105,10)	(-33,1)	
L1D -275>	(275,13)	(1,4)	(26,7)	(-20,2)	(0,30)	(8,5)	(265,3)	(218,5)	(219,12)	(24,2)	(19,2)	(6,5)	(105,21)	(277,1)	(272,2)	(264,2)	
L1D -274>	(218,2)	(220,6)	(211,41)	(0,16)	(-12,1)	(19,2)	(2,19)	(20,2)	(279,4)	(8,20)	(-20,2)	(105,2)	(217,1)	(4,1)	(1,2)	(264,1)	
L1D -273>	(277,77)	(211,43)	(420,2)	(17,1)	(1,2)	(24,0)	(6,2)	(9,0)	(-1,0)	(411,1)	(263,1)	(273,2)	(105,1)	(412,1)	(0,4)	(220,4)	
L1D -272>	(123,1)	(272,11)	(-1,2)	(211,77)	(0,35)	(8,1)	(221,8)	(50,1)	(220,3)	(216,1)	(270,4)	(105,1)	(36,1)	(4,1)	(233,1)	(275,2)	
L1D -271>	(282,1)	(-16,2)	(219,3)	(5,2)	(11,3)	(13,2)	(221,1)	(220,2)	(38,1)	(6,1)	(0,16)	(211,110)	(19,0)	(271,3)	(276,0)	(1,54)	
L1D -270>	(0,4)	(19,1)	(208,1)	(20,3)	(211,93)	(219,1)	(222,1)	(221,32)	(1,0)	(271,0)	(220,0)	(3,0)	(295,0)	(7,0)	(275,1)	(105,0)	
L1D -269>	(26,6)	(269,3)	(3,119)	(218,3)	(249,1)	(0,9)	(211,63)	(1,1)	(221,66)	(41,1)	(268,6)	(-20,4)	(29,1)	(4,2)	(220,42)	(13,12)	
L1D -268>	(268,1)	(3,2)	(221,92)	(-7,1)	(10,1)	(-214,0)	(20,7)	(5,2)	(0,3)	(211,0)	(2,3)	(1,0)	(272,0)	(219,2)	(19,5)	(220,21)	
L1D -267>	(218,12)	(220,126)	(1,3)	(420,49)	(263,9)	(412,42)	(221,8)	(0,14)	(219,23)	(-1,2)	(211,24)	(271,1)	(256,1)	(24,5)	(278,3)	(411,17)	
L1D -266>	(2,1)	(-20,3)	(219,38)	(1,2)	(272,1)	(220,2)	(0,8)	(218,5)	(268,1)	(221,77)	(277,1)	(434,1)	(-21,1)	(4,3)	(19,9)	(266,0)	
L1D -265>	(0,23)	(217,3)	(220,72)	(24,2)	(218,34)	(1,1)	(-20,1)	(262,1)	(138,0)	(219,0)	(6,1)	(2,1)	(-3,2)	(265,2)	(264,53)	(26,1)	
L1D -264>	(-1,13)	(264,26)	(12,2)	(1,6)	(0,60)	(218,3)	(219,80)	(217,1)	(-143,1)	(2,19)	(270,1)	(-12,2)	(5,29)	(4,7)	(262,5)	(276,2)	
L1D -263>	(29,2)	(218,26)	(264,1)	(265,1)	(24,15)	(259,2)	(139,1)	(26,6)	(221,7)	(252,1)	(1,18)	(0,37)	(263,5)	(267,2)	(220,3)	(432,1)	
L1D -262>	(274,1)	(217,2)	(6,2)	(226,1)	(19,3)	(267,2)	(0,6)	(2,1)	(221,1)	(220,113)	(-3,48)	(3,36)	(-20,1)	(262,1)	(20,9)	(-119,1)	
L1D -261>	(24,5)	(220,1)	(267,1)	(26,27)	(6,3)	(0,44)	(1,3)	(221,75)	(3,1)	(292,1)	(219,8)	(10,4)	(-1,1)	(-20,1)	(261,3)	(115,0)	
L1D -260>	(-11,7)	(3,5)	(2,25)	(0,28)	(220,79)	(6,2)	(-5,54)	(27,20)	(4,1)	(1,5)	(75,1)	(10,38)	(221,5)	(39,4)	(218,2)	(219,2)	
L1D -259>	(259,7)	(220,81)	(139,2)	(219,105)	(3,12)	(167,27)	(-12,13)	(10,3)	(1,12)	(249,4)	(-1,2)	(0,99)	(-5,24)	(258,2)	(-3,4)	(24,1)	
L1D -258>	(110,0)	(-13,38)	(62,64)	(1,16)	(218,3)	(20,1)	(-2,0)	(0,1)	(76,0)	(258,0)	(219,0)	(217,0)	(304,0)	(6,0)	(186,0)	(1,0)	
L1D -257>	(0,63)	(98,97)	(19,1)	(61,15)	(99,5)	(1,1)	(-1,2)	(60,116)	(217,3)	(243,0)	(257,0)	(97,0)	(261,0)	(266,0)	(-3,18)	(24,3)	
L1D -256>	(1,116)	(0,18)	(268,1)	(-74,1)	(255,1)	(125,1)	(252,34)	(-20,1)	(141,1)	(256,2)	(19,1)	(221,48)	(251,18)	(461,1)	(20,6)	(187,1)	
L1D -255>	(266,1)	(84,94)	(0,86)	(20,1)	(250,39)	(127,0)	(255,1)	(257,1)	(-20,1)	(26,3)	(3,0)	(259,3)	(22,0)	(19,0)	(220,19)	(262,0)	
L1D -254>	(2,13)	(1,24)	(217,7)	(71,5)	(219,39)	(121,11)	(81,7)	(257,110)	(20,35)	(-20,7)	(0,19)	(97,9)	(220,5)	(-2,60)	(253,123)	(247,1)	
L1D -253>	(257,7)	(218,7)	(253,22)	(1,11)	(6,2)	(-20,2)	(0,25)	(255,1)	(219,5)	(17,2)	(3,4)	(221,8)	(256,1)	(7,1)	(252,8)	(-13,1)	
L1D -252>	(-3,8)	(2,12)	(-20,9)	(128,10)	(20,4)	(-26,2)	(256,20)	(0,9)	(257,3)	(19,9)	(221,29)	(1,3)	(211,27)	(252,7)	(218,4)	(217,1)	
L1D -251>	(3,2)	(-20,1)	(219,1)	(220,1)	(-31,0)	(0,4)	(1,104)	(19,0)	(28,0)	(-22,0)	(212,0)	(262,0)	(38,0)	(4,0)	(246,0)	(1,0)	
L1D -250>	(219,16)	(254,42)	(84,98)	(-18,1)	(246,55)	(-7,11)	(70,44)	(121,6)	(250,5)	(4,4)	(221,7)	(257,3)	(47,5)	(2,14)	(19,6)	(0,14)	
L1D -249>	(1,20)	(24,23)	(248,5)	(221,3)	(220,39)	(249,11)	(26,4)	(19,8)	(0,16)	(-48,2)	(43,2)	(-20,1)	(102,2)	(-36,13)	(6,3)	(218,2)	
L1D -248>	(240,1)	(3,0)	(2,1)	(0,4)	(-6,0)	(249,0)	(211,22)	(221,0)	(19,2)	(16,0)	(20,5)	(-20,1)	(220,78)	(120,0)	(-37,0)	(248,0)	
L1D -247>	(26,21)	(245,21)	(226,4)	(247,40)	(244,2)	(273,1)	(-85,88)	(227,1)	(0,29)	(-215,2)	(1,7)	(219,2)	(-216,12)	(249,3)	(-218,4)	(-84,3)	
L1D -246>	(221,3)	(-89,29)	(-216,5)	(246,9)	(2,5)	(75,6)	(-20,4)	(19,40)	(0,114)	(1,1)	(-18,2)	(4,4)	(247,5)	(-3,1)	(-83,21)	(244,3)	
L1D -245>	(250,118)	(12,1)	(211,101)	(1,3)	(245,28)	(-6,11)	(-87,50)	(0,7)	(13,34)	(-9,1)	(-216,2)	(247,2)	(26,1)	(242,35)	(24,2)	(243,1)	
L1D -244>	(0,126)	(220,9)	(20,5)	(218,3)	(242,15)	(1,7)	(221,2)	(-20,6)	(-107,7)	(271,1)	(247,2)	(236,1)	(243,1)	(13,8)	(-3,2)	(272,1)	
L1D -243>	(3,100)	(220,3)	(0,39)	(246,2)	(19,2)	(245,2)	(236,1)	(240,1)	(-26,1)	(-83,1)	(-84,13)	(24,6)	(241,7)	(-20,1)	(4,2)	(13,15)	
L1D -242>	(47,72)	(221,12)	(0,34)	(247,13)	(239,7)	(-218,1)	(236,1)	(2,3)	(-6,0)	(8,0)	(20,4)	(-90,7)	(-84,12)	(1,71)	(242,73)	(245,12)	
L1D -241>	(221,18)	(1,14)	(217,5)	(2,3)	(-89,9)	(-107,8)	(0,41)	(24,23)	(241,20)	(26,64)	(240,16)	(235,17)	(220,3)	(236,1)	(-216,6)	(-215,3)	
L1D -240>	(241,18)	(-2,7)	(0,114)	(-11,6)	(219,12)	(103,3)	(220,3)	(221,75)	(239,17)	(19,1)	(1,7)	(237,1)	(2,4)	(188,1)	(238,15)	(20,20)	
L1D -239>	(239,61)	(220,51)	(221,65)	(219,12)	(-110,4)	(-20,10)	(244,17)	(242,1)	(1,6)	(0,30)	(186,17)	(228,5)	(218,17)	(241,4)	(-85,3)	(2,3)	
L1D -238>	(219,41)	(-107,41)	(-20,1)	(13,11)	(218,7)	(-98,2)	(12,34)	(19,2)	(217,10)	(0,26)	(237,19)	(-110,4)	(-106,12)	(-92,4)	(1,24)	(-104,2)	
L1D -237>	(217,3)	(227,3)	(-20,5)	(-9,5)	(239,6)	(221,32)	(218,4)	(1,2)	(0,37)	(29,2)	(219,9)	(237,36)	(240,31)	(47,7)	(2,1)	(220,11)	
L1D -236>	(2,1)	(221,31)	(1,2)	(3,68)	(239,0)	(0,4)	(236,4)	(19,2)	(13,0)	(-110,0)	(-6,1)	(20,1)	(237,3)	(219,0)	(247,0)	(-20,1)	
L1D -235>	(219,27)	(232,13)	(235,28)	(234,3)	(2,6)	(233,90)	(6,21)	(0,27)	(24,5)	(231,1)	(221,2)	(374,2)	(224,2)	(220,45)	(1,10)	(3,32)	
L1D -234>	(221,20)	(19,7)	(0,26)	(1,11)	(219,33)	(-100,73)	(103,6)	(230,1)	(218,30)	(237,3)	(-20,4)	(3,42)	(244,3)	(-18,6)	(220,12)	(232,53)	
L1D -233>	(3,83)	(233,54)	(221,25)	(218,37)	(29,3)	(1,12)	(227,13)	(0,54)	(24,18)	(6,19)	(217,1)	(219,12)	(2,3)	(222,3)	(26,5)	(232,96)	
L1D -232>	(0,66)	(234,126)	(221,21)	(3,78)	(-117,16)	(-111,13)	(6,7)	(-120,7)	(19,12)	(-118,14)	(230,1)	(219,23)	(1,31)	(232,32)	(229,107)	(233,16)	
L1D -231>	(6,18)	(221,72)	(0,40)	(93,2)	(4,3)	(3,20)	(228,10)	(94,2)	(231,14)	(238,4)	(-117,3)	(234,5)	(1,7)	(-99,3)	(121,1)	(-1,2)	
L1D -230>	(110,30)	(20,1)	(4,27)	(6,64)	(-8,41)	(2,16)	(0,51)	(229,92)	(230,17)	(218,13)	(221,34)	(-6,15)	(-118,11)	(3,13)	(-117,18)	(232,15)	
L1D -229>	(-104,1)	(220,11)	(6,17)	(0,126)	(374,11)	(3,57)	(232,48)	(221,5)	(-216,10)	(-9,39)	(1,5)	(-103,50)	(219,17)	(110,8)	(226,34)	(227,16)	
L1D -228>	(0,17)	(-118,4)	(228,24)	(225,10)	(220,112)	(219,6)	(221,122)	(-104,3)	(218,2)	(1,4)	(-111,3)	(-114,2)	(6,15)	(-107,3)	(-120,1)	(216,2)	
L1D -227>	(-110,10)	(3,29)	(224,71)	(1,7)	(227,16)	(4,1)	(0,3)	(-103,1)	(6,3)	(-105,21)	(230,9)	(218,4)	(-108,6)	(220,5)	(-106,11)	(113,7)	
L1D -226>	(223,75)	(224,87)	(235,1)	(5,50)	(-106,49)	(6,12)	(-5,2)	(221,25)	(0,19)	(1,8)	(-108,5)	(-102,2)	(219,29)	(227,14)	(226,30)	(3,103)	
L1D -225>	(225,9)	(0,17)	(-20,3)	(-13,16)	(3,14)	(116,7)	(218,3)	(6,73)	(228,6)	(-210,1)	(1,2)	(-110,2)	(-111,3)	(-102,3)	(221,10)	(281,3)	
L1D -224>	(117,1)	(-107,1)	(3,26)	(221,121)	(116,1)	(112,1)	(224,5)	(-14,5)	(1,1)	(222,6)	(113,3)	(5,3)	(0,25)	(6,16)	(-111,15)	(-110,8)	
L1D -223>	(221,80)	(223,10)	(218,2)	(0,8)	(3,17)	(219,13)	(217,2)	(40,1)	(220,9)	(-102,2)	(102,1)	(6,45)	(5,4)	(245,2)	(-15,3)	(1,2)	
L1D -222>	(0,4)	(219,7)	(6,123)	(-110,6)	(221,37)	(222,6)	(225,11)	(-5,3)	(224,4)	(227,3)	(-118,3)	(-20,1)	(-16,4)	(-117,8)	(220,11)	(3,13)	
L1D -221>	(6,20)	(-110,4)	(0,12)	(221,85)	(111,2)	(219,2)	(224,3)	(218,3)	(3,6)	(223,1)	(233,3)	(-5,1)	(-111,9)	(84,6)	(241,2)	(-113,2)	
L1D -220>	(0,12)	(221,85)	(220,121)	(271,2)	(3,2)	(277,2)	(-6,5)	(278,2)	(275,2)	(241,6)	(246,2)	(235,1)	(114,2)	(6,7)	(11,3)	(1,1)	
L1D -219>	(229,5)	(268,3)	(220,58)	(219,108)	(273,4)	(274,2)	(108,5)	(114,9)	(-6,9)	(259,8)	(238,2)	(245,1)	(248,5)	(271,2)	(239,4)	(6,23)	
L1D -218>	(219,96)	(218,124)	(245,7)	(237,14)	(271,5)	(227,10)	(6,7)	(-108,1)	(243,7)	(108,8)	(11,7)	(228,5)	(3,17)	(273,5)	(272,11)	(233,5)	
L1D -217>	(218,107)	(228,9)	(-4,3)	(6,12)	(111,48)	(110,53)	(276,1)	(227,6)	(217,87)	(123,61)	(234,2)	(3,8)	(269,4)	(272,5)	(214,8)	(113,17)	
L1D -216>	(217,45)	(-11,13)	(6,7)	(216,71)	(11,9)	(0,12)	(110,37)	(111,114)	(114,12)	(20,6)	(112,1)	(3,7)	(-49,10)	(113,54)	(122,20)	(262,4)	
L1D -215>	(215,100)	(218,26)	(6,27)	(121,28)	(0,15)	(-5,32)	(98,30)	(111,16)	(110,54)	(332,1)	(-11,14)	(112,52)	(113,36)	(5,6)	(216,19)	(212,16)	
L1D -214>	(120,17)	(0,89)	(-6,20)	(110,38)	(114,1)	(214,8)	(-5,14)	(12,3)	(215,2)	(-114,4)	(13,4)	(107,2)	(5,4)	(1,14)	(-20,9)	(6,25)	
L1D -213>	(-5,31)	(119,10)	(108,4)	(334,5)	(1,2)	(213,35)	(111,23)	(110,20)	(6,18)	(113,6)	(-6,36)	(0,101)	(3,4)	(-3,7)	(11,13)	(-2,2)	
L1D -212>	(0,9)	(212,25)	(210,4)	(109,6)	(-14,1)	(334,29)	(-6,29)	(-11,12)	(110,3)	(-9,3)	(219,7)	(6,72)	(118,44)	(-5,2)	(209,12)	(105,11)	
L1D -211>	(5,32)	(-5,26)	(117,90)	(-11,34)	(6,84)	(-6,76)	(0,12)	(106,11)	(211,33)	(-21,18)	(210,5)	(209,35)	(-2,7)	(-48,1)	(208,20)	(1,14)	
L1D -210>	(210,69)	(110,14)	(107,80)	(-2,3)	(116,41)	(111,3)	(-6,69)	(-16,1)	(6,12)	(3,13)	(334,11)	(-12,7)	(207,2)	(105,39)	(-11,2)	(5,20)	
L1D -209>	(-6,83)	(6,110)	(209,4)	(0,18)	(115,7)	(-11,19)	(116,1)	(7,2)	(-25,10)	(26,16)	(4,2)	(-16,6)	(-5,20)	(11,18)	(212,5)	(5,20)	
L1D -208>	(328,1)	(-5,23)	(0,10)	(114,102)	(206,6)	(5,24)	(6,58)	(-6,40)	(105,3)	(-27,7)	(-118,6)	(-11,13)	(-10,3)	(-102,3)	(207,2)	(211,3)	
L1D -207>	(-6,54)	(0,8)	(6,46)	(207,40)	(-109,3)	(5,21)	(213,2)	(209,2)	(328,4)	(11,12)	(210,10)	(113,112)	(105,9)	(-5,4)	(2,11)	(-4,2)	
L1D -206>	(4,8)	(-102,7)	(6,107)	(206,76)	(213,16)	(5,8)	(-18,5)	(113,17)	(0,7)	(-105,3)	(-5,1)	(112,9)	(3,3)	(43,3)	(110,4)	(-6,17)	
L1D -205>	(-6,96)	(5,30)	(-102,4)	(-38,18)	(0,35)	(-10,3)	(334,1)	(6,19)	(204,28)	(203,10)	(-5,51)	(1,8)	(-149,5)	(111,28)	(-16,12)	(-11,3)	
L1D -204>	(334,1)	(6,83)	(203,28)	(0,23)	(11,13)	(-6,48)	(205,4)	(110,5)	(3,43)	(204,12)	(201,5)	(5,27)	(-41,9)	(111,25)	(-5,24)	(-103,6)	
L1D -203>	(114,10)	(203,43)	(6,118)	(110,59)	(55,14)	(-22,6)	(3,30)	(-6,24)	(5,16)	(-5,3)	(2,4)	(197,3)	(0,19)	(199,4)	(109,19)	(-80,1)	
L1D -202>	(200,47)	(-6,77)	(0,15)	(5,16)	(6,50)	(16,1)	(1,9)	(-4,2)	(-5,2)	(-16,11)	(334,2)	(202,8)	(-41,9)	(24,1)	(-36,2)	(-108,1)	
L1D -201>	(112,21)	(204,40)	(111,10)	(105,4)	(-3,23)	(332,1)	(6,93)	(-5,12)	(11,25)	(5,44)	(-6,56)	(108,87)	(3,6)	(0,18)	(201,33)	(-46,12)	
L1D -200>	(6,115)	(111,64)	(-3,9)	(200,14)	(5,15)	(-6,20)	(0,12)	(107,10)	(-38,48)	(24,1)	(-11,11)	(-47,18)	(-1,10)	(106,12)	(110,5)	(197,12)	
L1D -199>	(5,114)	(-4,13)	(7,51)	(199,24)	(1,5)	(198,9)	(23,13)	(-18,5)	(110,20)	(-6,3)	(105,3)	(3,3)	(2,7)	(328,1)	(0,40)	(-40,113)	
L1D -198>	(109,29)	(329,8)	(0,10)	(5,6)	(197,1)	(198,10)	(-5,64)	(1,7)	(105,89)	(6,17)	(195,11)	(108,10)	(104,3)	(-10,9)	(-11,13)	(-6,32)	
L1D -197>	(108,101)	(-6,10)	(5,12)	(320,2)	(197,20)	(190,1)	(318,1)	(104,7)	(6,15)	(2,7)	(333,1)	(-11,1)	(111,1)	(0,5)	(1,26)	(-42,4)	
L1D -196>	(107,79)	(-2,6)	(196,17)	(110,44)	(3,40)	(1,31)	(312,1)	(5,17)	(-6,15)	(0,10)	(6,3)	(-5,15)	(194,3)	(-7,3)	(333,10)	(103,3)	
L1D -195>	(6,10)	(106,20)	(110,123)	(111,91)	(102,127)	(195,38)	(332,11)	(0,10)	(-6,25)	(1,13)	(105,41)	(-3,8)	(-2,3)	(334,3)	(3,23)	(318,1)	
L1D -194>	(2,12)	(5,17)	(-6,10)	(194,46)	(105,119)	(1,20)	(111,124)	(315,1)	(0,19)	(18,14)	(332,20)	(11,7)	(-2,17)	(6,46)	(3,19)	(110,17)	
L1D -193>	(329,24)	(193,35)	(-1,8)	(2,10)	(0,10)	(331,22)	(-5,71)	(1,60)	(6,8)	(-3,7)	(334,3)	(-10,1)	(107,7)	(100,7)	(-6,12)	(104,12)	
L1D -192>	(-6,49)	(192,50)	(102,20)	(5,22)	(103,14)	(-47,9)	(-5,77)	(328,25)	(0,4)	(107,37)	(329,29)	(108,23)	(1,11)	(140,1)	(16,7)	(-3,36)	
L1D -191>	(191,35)	(-6,40)	(329,5)	(-5,75)	(315,0)	(1,0)	(102,9)	(107,0)	(105,2)	(15,2)	(328,6)	(108,2)	(5,2)	(325,0)	(-3,6)	(-10,0)	
L1D -190>	(-1,24)	(105,44)	(-6,70)	(-56,16)	(1,15)	(179,1)	(188,13)	(190,5)	(2,5)	(6,14)	(5,56)	(189,6)	(14,25)	(0,15)	(177,6)	(-49,4)	
L1D -189>	(5,72)	(33,2)	(-6,42)	(1,23)	(-5,21)	(-12,1)	(6,9)	(190,6)	(13,6)	(177,4)	(0,11)	(187,3)	(-1,1)	(11,1)	(-54,8)	(105,10)	
L1D -188>	(-55,7)	(200,1)	(0,6)	(211,1)	(-6,2)	(5,15)	(1,4)	(190,10)	(11,3)	(188,5)	(105,1)	(-12,1)	(44,80)	(13,2)	(177,1)	(17,1)	
L1D -187>	(11,9)	(-1,7)	(10,5)	(5,65)	(-6,5)	(187,49)	(2,1)	(8,4)	(0,83)	(-51,4)	(-56,13)	(6,4)	(-20,25)	(-52,14)	(-5,12)	(1,8)	
L1D -186>	(105,17)	(-6,38)	(1,33)	(4,1)	(0,120)	(12,8)	(182,8)	(185,39)	(10,27)	(2,67)	(8,7)	(24,5)	(184,17)	(9,4)	(5,5)	(-2,6)	
L1D -185>	(184,9)	(1,88)	(44,1)	(5,6)	(29,3)	(0,30)	(-1,1)	(-6,3)	(-75,5)	(185,1)	(9,17)	(177,18)	(8,35)	(105,83)	(10,6)	(188,1)	
L1D -184>	(8,29)	(-6,22)	(0,87)	(-17,6)	(4,6)	(183,19)	(1,9)	(-1,3)	(177,18)	(-70,44)	(182,5)	(6,7)	(51,19)	(66,1)	(26,1)	(105,5)	
L1D -183>	(183,1)	(58,3)	(-6,42)	(0,39)	(5,5)	(-1,3)	(6,17)	(2,51)	(188,2)	(177,4)	(8,16)	(7,15)	(182,20)	(9,8)	(-2,2)	(105,5)	
L1D -182>	(2,23)	(180,7)	(-26,2)	(1,99)	(-6,27)	(0,40)	(6,48)	(182,2)	(169,5)	(5,14)	(178,9)	(188,4)	(165,1)	(181,4)	(187,3)	(4,6)	
L1D -181>	(282,2)	(-6,9)	(1,7)	(5,10)	(6,8)	(0,31)	(176,6)	(186,10)	(187,4)	(175,17)	(178,6)	(168,1)	(153,1)	(2,1)	(185,2)	(254,2)	
L1D -180>	(136,71)	(224,83)	(180,3)	(0,101)	(176,29)	(110,25)	(50,27)	(-44,11)	(184,26)	(228,17)	(34,30)	(175,30)	(4,4)	(164,1)	(163,11)	(65,26)	
L1D -179>	(3,29)	(34,13)	(170,5)	(168,20)	(179,6)	(1,12)	(0,13)	(171,3)	(175,32)	(182,14)	(174,47)	(176,29)	(163,10)	(181,1)	(173,20)	(177,15)	
L1D -178>	(172,1)	(176,13)	(0,85)	(1,8)	(-1,34)	(165,14)	(173,21)	(184,2)	(169,13)	(164,19)	(32,2)	(175,62)	(174,68)	(186,3)	(182,5)	(188,1)	
L1D -177>	(174,32)	(177,93)	(1,110)	(168,49)	(4,5)	(171,62)	(0,16)	(-2,22)	(175,98)	(160,1)	(-1,45)	(173,60)	(-15,6)	(172,19)	(170,22)	(164,37)	
L1D -176>	(171,32)	(175,114)	(174,116)	(-2,18)	(173,75)	(169,21)	(178,57)	(172,41)	(177,68)	(165,22)	(3,16)	(1,20)	(170,35)	(186,28)	(179,1)	(162,23)	
L1D -175>	(172,8)	(0,6)	(161,3)	(-1,105)	(178,16)	(177,11)	(176,8)	(105,11)	(9,4)	(6,11)	(183,7)	(168,1)	(-168,10)	(170,41)	(173,14)	(165,5)	
L1D -174>	(50,17)	(1,16)	(28,19)	(168,91)	(0,31)	(177,9)	(175,6)	(-2,7)	(178,15)	(-3,78)	(3,2)	(166,1)	(87,9)	(-18,1)	(174,4)	(170,3)	
L1D -173>	(179,1)	(-1,30)	(28,65)	(1,1)	(105,1)	(86,3)	(316,9)	(177,5)	(2,4)	(6,1)	(-3,6)	(181,0)	(176,1)	(173,2)	(175,2)	(171,2)	
L1D -172>	(180,9)	(0,67)	(105,102)	(2,25)	(178,15)	(171,34)	(29,2)	(-4,12)	(1,4)	(48,7)	(4,1)	(174,24)	(176,20)	(172,7)	(167,102)	(175,49)	
L1D -171>	(171,103)	(177,42)	(-3,4)	(4,33)	(-4,24)	(172,3)	(118,5)	(173,5)	(170,9)	(-263,1)	(176,1)	(90,44)	(3,2)	(167,4)	(-1,1)	(-157,1)	
L1D -170>	(33,106)	(170,8)	(175,4)	(172,12)	(183,2)	(-168,12)	(0,25)	(6,67)	(169,72)	(-50,1)	(-5,1)	(180,1)	(-167,4)	(173,3)	(-1,3)	(174,1)	
L1D -169>	(-6,2)	(27,2)	(169,2)	(1,6)	(-7,2)	(170,1)	(0,5)	(2,92)	(-1,2)	(76,1)	(178,4)	(105,5)	(-2,1)	(171,7)	(187,1)	(175,4)	
L1D -168>	(168,1)	(0,3)	(9,1)	(-3,108)	(1,35)	(87,7)	(175,1)	(343,92)	(-5,1)	(188,1)	(190,1)	(-4,2)	(-7,1)	(-8,2)	(155,1)	(338,2)	
L1D -167>	(185,2)	(167,12)	(-4,6)	(166,49)	(86,95)	(-209,2)	(-6,1)	(-9,3)	(175,6)	(0,5)	(174,2)	(190,2)	(-1,1)	(-3,1)	(176,1)	(169,6)	
L1D -166>	(-10,20)	(175,12)	(1,7)	(2,3)	(384,1)	(167,5)	(-4,127)	(-1,19)	(0,7)	(176,3)	(171,1)	(168,4)	(348,1)	(174,5)	(189,4)	(190,1)	
L1D -165>	(166,8)	(-10,4)	(190,5)	(0,23)	(175,13)	(-14,10)	(-1,9)	(72,56)	(-11,12)	(254,3)	(189,6)	(187,11)	(167,32)	(-2,10)	(174,2)	(1,48)	
L1D -164>	(137,1)	(-6,1)	(91,1)	(165,1)	(169,1)	(2,1)	(175,1)	(153,98)	(-12,2)	(188,0)	(-11,0)	(166,1)	(-3,0)	(173,1)	(1,0)	(161,0)	
L1D -163>	(254,1)	(164,8)	(175,7)	(173,3)	(27,3)	(37,9)	(-1,3)	(-135,2)	(174,4)	(40,17)	(38,13)	(39,4)	(165,47)	(-12,8)	(163,118)	(42,5)	
L1D -162>	(163,22)	(-14,36)	(2,6)	(1,5)	(172,6)	(190,11)	(54,49)	(0,10)	(164,31)	(166,10)	(298,3)	(175,25)	(162,3)	(45,1)	(173,4)	(-28,2)	
L1D -161>	(0,81)	(162,78)	(-14,102)	(-15,16)	(175,23)	(161,4)	(1,5)	(164,2)	(191,4)	(163,52)	(174,4)	(172,7)	(-8,3)	(-1,4)	(169,1)	(282,1)	
L1D -160>	(156,17)	(163,100)	(66,2)	(-16,6)	(12,9)	(175,3)	(161,8)	(172,2)	(1,3)	(-1,9)	(7,3)	(174,8)	(187,2)	(0,7)	(3,1)	(2,3)	
L1D -159>	(-99,116)	(-98,7)	(186,2)	(342,1)	(158,7)	(27,1)	(4,1)	(160,2)	(156,3)	(0,2)	(410,1)	(150,0)	(1,1)	(9,0)	(174,4)	(-17,0)	
L1D -158>	(1,8)	(-46,35)	(175,17)	(0,22)	(-4,12)	(-18,17)	(158,2)	(-1,21)	(6,5)	(157,121)	(-8,2)	(61,1)	(174,8)	(-125,6)	(98,1)	(3,5)	
L1D -157>	(-56,79)	(32,0)	(0,0)	(157,0)	(-84,0)	(156,0)	(1,0)	(1,0)	(1,0)	(1,0)	(1,0)	(1,0)	(1,0)	(1,0)	(1,0)	(1,0)	
L1D -156>	(154,3)	(-3,23)	(0,26)	(175,3)	(-19,1)	(64,55)	(-8,66)	(159,7)	(156,7)	(186,3)	(155,4)	(157,8)	(3,8)	(-1,11)	(2,20)	(174,5)	
L1D -155>	(-1,19)	(-21,2)	(2,7)	(0,56)	(-3,11)	(-8,112)	(-20,12)	(155,12)	(-108,1)	(1,1)	(179,1)	(156,41)	(12,1)	(-2,2)	(283,0)	(-308,0)	
L1D -154>	(150,3)	(94,19)	(0,2)	(92,4)	(153,79)	(140,1)	(-1,10)	(93,30)	(152,8)	(155,1)	(91,1)	(146,3)	(148,4)	(127,0)	(-22,1)	(76,0)	
L1D -153>	(93,75)	(150,5)	(0,2)	(-1,5)	(1,2)	(78,1)	(89,1)	(-8,6)	(91,6)	(-6,1)	(12,3)	(90,1)	(152,3)	(94,5)	(153,11)	(92,5)	
L1D -152>	(21,107)	(92,32)	(26,16)	(93,40)	(25,50)	(38,12)	(23,16)	(-1,22)	(41,8)	(27,3)	(40,12)	(39,3)	(24,75)	(121,3)	(89,1)	(37,13)	
L1D -151>	(91,19)	(0,16)	(146,6)	(150,22)	(1,33)	(3,1)	(141,2)	(88,12)	(140,18)	(93,9)	(142,5)	(154,8)	(89,25)	(149,22)	(145,15)	(139,7)	
L1D -150>	(90,19)	(-5,2)	(-3,2)	(136,1)	(1,5)	(0,7)	(12,4)	(150,7)	(151,6)	(147,4)	(76,3)	(91,6)	(149,90)	(145,3)	(89,9)	(148,12)	
L1D -149>	(0,72)	(1,111)	(-4,3)	(154,2)	(-10,71)	(149,10)	(89,4)	(11,27)	(354,2)	(87,3)	(13,8)	(90,3)	(3,75)	(-1,8)	(148,5)	(138,15)	
L1D -148>	(147,39)	(153,4)	(56,70)	(157,3)	(117,4)	(146,26)	(0,6)	(3,8)	(1,3)	(148,9)	(-1,1)	(10,4)	(150,1)	(90,5)	(25,1)	(93,3)	
L1D -147>	(141,75)	(29,1)	(133,2)	(-1,1)	(116,1)	(93,1)	(88,1)	(-99,1)	(90,2)	(155,1)	(154,3)	(139,3)	(-33,19)	(92,2)	(0,3)	(9,2)	
L1D -146>	(154,7)	(147,21)	(9,75)	(145,113)	(-4,2)	(142,7)	(104,75)	(2,29)	(98,3)	(-33,13)	(100,3)	(140,1)	(8,2)	(-1,5)	(103,3)	(144,11)	
L1D -145>	(143,7)	(-14,1)	(2,3)	(103,89)	(149,5)	(12,27)	(7,20)	(1,8)	(-2,2)	(5,4)	(-1,3)	(96,5)	(142,2)	(104,11)	(-5,2)	(133,9)	
L1D -144>	(12,4)	(7,101)	(102,29)	(141,7)	(144,12)	(-26,23)	(0,86)	(142,2)	(1,40)	(145,3)	(137,3)	(143,8)	(104,11)	(177,7)	(-50,3)	(152,1)	
L1D -143>	(-1,65)	(142,19)	(19,8)	(0,52)	(147,3)	(101,7)	(1,2)	(145,2)	(137,4)	(144,12)	(104,9)	(100,6)	(420,5)	(132,13)	(-9,1)	(125,1)	
L1D -142>	(136,118)	(6,3)	(1,5)	(137,40)	(5,2)	(141,3)	(0,61)	(102,5)	(140,12)	(44,1)	(99,11)	(100,20)	(97,12)	(98,20)	(138,22)	(96,2)	
L1D -141>	(42,41)	(25,87)	(26,50)	(24,39)	(38,60)	(21,68)	(41,49)	(23,11)	(37,44)	(27,20)	(139,1)	(39,30)	(6,48)	(43,11)	(40,49)	(36,3)	
L1D -140>	(0,78)	(92,6)	(100,11)	(139,10)	(123,11)	(89,6)	(154,18)	(12,13)	(-149,4)	(1,1)	(95,7)	(-10,54)	(137,56)	(136,16)	(125,14)	(140,3)	
L1D -139>	(-327,25)	(172,7)	(154,3)	(1,40)	(100,1)	(151,1)	(137,22)	(135,11)	(-1,1)	(138,18)	(142,7)	(134,4)	(140,5)	(125,4)	(136,67)	(3,4)	
L1D -138>	(143,26)	(129,11)	(-3,35)	(-35,38)	(140,87)	(1,11)	(135,21)	(134,38)	(-1,21)	(137,30)	(138,36)	(141,36)	(136,56)	(131,1)	(139,57)	(132,11)	
L1D -137>	(146,2)	(4,2)	(200,1)	(-33,29)	(140,21)	(-14,1)	(-149,1)	(138,29)	(0,9)	(134,2)	(139,11)	(9,2)	(154,1)	(97,2)	(-7,122)	(3,2)	
L1D -136>	(2,1)	(0,40)	(-7,24)	(-4,95)	(139,16)	(134,6)	(137,8)	(-2,8)	(135,2)	(127,2)	(146,4)	(1,19)	(132,6)	(-44,5)	(44,37)	(136,15)	
L1D -135>	(0,21)	(-93,7)	(2,93)	(138,15)	(-2,2)	(137,40)	(102,1)	(6,16)	(219,10)	(-84,5)	(-1,4)	(133,11)	(134,4)	(1,7)	(-89,3)	(-39,1)	
L1D -134>	(130,10)	(218,24)	(92,73)	(133,91)	(132,61)	(122,19)	(111,44)	(-93,5)	(-1,55)	(131,44)	(121,12)	(-89,3)	(219,8)	(124,12)	(137,1)	(129,13)	
L1D -133>	(132,37)	(133,16)	(0,5)	(131,21)	(-1,26)	(6,4)	(272,1)	(91,40)	(1,105)	(51,14)	(217,24)	(218,45)	(-3,2)	(129,9)	(130,8)	(84,6)	
L1D -132>	(129,7)	(6,75)	(90,24)	(179,22)	(133,30)	(-1,31)	(218,26)	(120,2)	(131,18)	(217,61)	(92,8)	(134,4)	(130,17)	(72,7)	(132,7)	(-6,1)	
L1D -131>	(132,16)	(122,6)	(6,10)	(130,22)	(-1,13)	(133,15)	(0,6)	(89,27)	(-15,57)	(1,18)	(-13,7)	(216,18)	(148,1)	(129,19)	(217,80)	(126,6)	
L1D -130>	(218,37)	(216,105)	(88,11)	(129,12)	(133,42)	(-1,6)	(217,43)	(128,8)	(123,9)	(125,17)	(1,13)	(130,6)	(131,7)	(118,1)	(0,8)	(124,6)	
L1D -129>	(1,4)	(-149,120)	(125,5)	(130,6)	(218,69)	(-9,12)	(-269,30)	(129,10)	(0,9)	(134,26)	(127,12)	(87,3)	(137,1)	(132,36)	(-1,13)	(217,60)	
L1D -128>	(128,13)	(-270,49)	(-93,8)	(0,45)	(216,20)	(133,27)	(134,2)	(100,3)	(218,3)	(117,1)	(125,57)	(217,19)	(130,3)	(-18,8)	(219,8)	(1,111)	
L1D -127>	(103,1)	(129,1)	(132,2)	(143,1)	(110,1)	(87,1)	(131,2)	(218,6)	(33,1)	(0,1)	(146,1)	(1,71)	(-45,1)	(120,1)	(123,2)	(154,1)	
L1D -126>	(127,6)	(111,19)	(220,117)	(125,15)	(130,1)	(119,20)	(84,36)	(217,5)	(120,10)	(-1,8)	(134,5)	(123,12)	(124,17)	(3,4)	(6,10)	(1,106)	
L1D -125>	(134,1)	(216,3)	(121,5)	(-1,13)	(66,9)	(124,13)	(83,16)	(43,10)	(125,15)	(123,14)	(219,34)	(126,19)	(8,79)	(119,5)	(122,5)	(1,78)	
L1D -124>	(1,29)	(218,87)	(117,9)	(-1,36)	(82,35)	(146,1)	(122,12)	(134,21)	(217,38)	(216,42)	(21,29)	(80,4)	(3,4)	(125,70)	(128,11)	(0,5)	
L1D -123>	(123,91)	(10,2)	(81,15)	(83,4)	(332,2)	(-1,7)	(-2,1)	(3,11)	(110,61)	(111,22)	(105,31)	(121,6)	(124,7)	(0,6)	(217,16)	(1,64)	
L1D -122>	(216,11)	(122,31)	(111,57)	(3,7)	(125,21)	(117,85)	(2,8)	(4,48)	(-1,1)	(120,5)	(8,41)	(121,6)	(0,7)	(6,25)	(119,8)	(110,12)	
L1D -121>	(-7,43)	(113,4)	(125,1)	(121,25)	(219,2)	(0,2)	(-6,3)	(120,2)	(-5,77)	(119,8)	(123,7)	(124,4)	(122,2)	(-3,3)	(79,5)	(-1,4)	
L1D -120>	(120,109)	(109,18)	(0,6)	(121,1)	(214,13)	(110,11)	(328,5)	(-2,7)	(1,6)	(111,24)	(2,7)	(3,13)	(-1,9)	(103,41)	(-6,30)	(107,10)	
L1D -119>	(334,1)	(6,15)	(213,49)	(111,50)	(119,118)	(218,36)	(121,22)	(0,17)	(3,14)	(110,79)	(120,11)	(113,13)	(5,52)	(-1,40)	(117,35)	(116,45)	
L1D -118>	(109,98)	(18,37)	(326,1)	(217,0)	(328,0)	(105,0)	(2,0)	(134,0)	(115,0)	(111,0)	(127,0)	(117,0)	(114,0)	(-1,0)	(118,0)	(116,0)	
L1D -117>	(117,86)	(111,18)	(35,30)	(331,3)	(71,9)	(3,13)	(108,6)	(0,9)	(75,8)	(218,8)	(211,10)	(106,1)	(334,5)	(-5,10)	(1,7)	(82,8)	
L1D -116>	(116,54)	(110,80)	(113,98)	(-109,1)	(111,34)	(3,61)	(115,7)	(108,7)	(118,52)	(210,21)	(218,22)	(107,35)	(0,29)	(217,18)	(219,55)	(119,9)	
L1D -115>	(-5,17)	(69,10)	(209,11)	(-105,15)	(218,77)	(80,25)	(116,39)	(3,13)	(0,24)	(115,66)	(-216,1)	(-31,7)	(112,94)	(55,99)	(113,39)	(332,8)	
L1D -114>	(114,115)	(-6,32)	(218,17)	(3,46)	(0,13)	(-3,6)	(110,59)	(219,15)	(111,75)	(108,22)	(105,8)	(122,4)	(329,8)	(331,5)	(208,28)	(332,2)	
L1D -113>	(107,12)	(3,27)	(113,101)	(218,16)	(104,1)	(84,47)	(2,14)	(-6,7)	(110,56)	(105,20)	(334,15)	(108,43)	(217,22)	(111,41)	(42,11)	(213,3)	
L1D -112>	(2,2)	(12,18)	(0,2)	(112,41)	(-5,68)	(113,26)	(216,9)	(108,13)	(110,34)	(217,7)	(219,2)	(111,3)	(86,1)	(218,7)	(334,3)	(3,6)	
L1D -111>	(329,21)	(111,89)	(334,21)	(3,19)	(213,4)	(1,1)	(332,22)	(113,13)	(108,22)	(-2,10)	(0,23)	(110,6)	(-6,22)	(105,14)	(-5,9)	(216,27)	
L1D -110>	(0,35)	(111,25)	(331,34)	(114,1)	(113,14)	(328,17)	(217,7)	(2,14)	(110,108)	(3,21)	(442,4)	(329,7)	(334,15)	(-3,20)	(107,11)	(116,11)	
L1D -109>	(230,0)	(266,80)	(-4,0)	(216,0)	(217,0)	(44,0)	(9,0)	(23,2)	(349,0)	(-3,0)	(109,0)	(18,0)	(-2,0)	(3,0)	(111,0)	(99,0)	
L1D -108>	(110,41)	(-54,36)	(192,37)	(3,1)	(105,24)	(118,9)	(-10,30)	(108,69)	(0,41)	(-6,74)	(-5,53)	(120,12)	(117,14)	(113,13)	(78,70)	(114,35)	
L1D -107>	(65,22)	(107,11)	(120,6)	(110,12)	(111,7)	(108,7)	(351,1)	(192,2)	(-108,2)	(7,12)	(193,30)	(5,1)	(200,3)	(8,19)	(113,4)	(109,94)	
L1D -106>	(-110,1)	(106,2)	(13,70)	(2,1)	(40,1)	(-111,1)	(3,2)	(1,8)	(102,2)	(15,28)	(111,3)	(117,2)	(-109,5)	(195,2)	(12,1)	(313,0)	
L1D -105>	(0,48)	(106,1)	(221,25)	(110,25)	(117,9)	(12,4)	(-111,34)	(-1,12)	(-5,44)	(114,70)	(-328,83)	(7,52)	(111,77)	(194,18)	(-38,8)	(105,68)	
L1D -104>	(193,10)	(103,2)	(113,5)	(110,2)	(5,124)	(10,1)	(-111,2)	(-113,4)	(18,87)	(38,3)	(117,1)	(-2,3)	(108,3)	(144,1)	(104,6)	(-1,5)	
L1D -103>	(60,86)	(-112,2)	(12,108)	(18,85)	(219,27)	(22,24)	(-110,2)	(4,46)	(-113,1)	(1,1)	(11,6)	(-2,19)	(192,19)	(10,1)	(218,2)	(17,42)	
L1D -102>	(-114,18)	(191,54)	(102,10)	(195,4)	(106,5)	(103,1)	(30,30)	(-5,92)	(192,9)	(110,9)	(11,6)	(108,2)	(-7,4)	(111,16)	(12,8)	(-113,2)	
L1D -101>	(102,64)	(68,123)	(142,18)	(1,13)	(-4,16)	(105,7)	(0,31)	(-115,35)	(101,59)	(111,29)	(-3,12)	(103,44)	(145,67)	(-116,37)	(-42,67)	(-114,2)	
L1D -100>	(38,65)	(-117,51)	(-43,21)	(-13,11)	(193,76)	(141,23)	(100,1)	(-115,35)	(-5,31)	(17,20)	(0,23)	(1,32)	(6,27)	(-4,11)	(101,16)	(-116,74)	
L1D -99>	(38,22)	(0,62)	(78,15)	(62,96)	(24,24)	(99,28)	(60,8)	(192,4)	(-4,40)	(98,21)	(61,4)	(89,8)	(87,1)	(28,10)	(1,5)	(103,1)	
L1D -98>	(98,77)	(-1,23)	(0,77)	(60,110)	(28,14)	(78,71)	(29,3)	(-118,4)	(7,57)	(97,11)	(141,3)	(103,1)	(107,96)	(-119,7)	(140,4)	(99,11)	
L1D -97>	(95,2)	(103,1)	(98,88)	(99,8)	(138,5)	(-120,17)	(97,18)	(101,6)	(-119,21)	(-1,26)	(29,37)	(140,5)	(0,5)	(-118,7)	(1,34)	(125,1)	
L1D -96>	(96,1)	(139,1)	(99,1)	(-9,6)	(94,1)	(101,1)	(7,0)	(144,0)	(-120,0)	(125,0)	(107,1)	(98,2)	(-113,0)	(-29,65)	(1,3)	(102,0)	
L1D -95>	(1,23)	(-29,16)	(146,9)	(150,110)	(96,7)	(97,9)	(-14,23)	(125,5)	(232,5)	(-11,5)	(224,8)	(153,3)	(94,8)	(92,1)	(24,1)	(0,6)	
L1D -94>	(50,4)	(-163,1)	(1,25)	(152,11)	(-34,56)	(-32,7)	(212,14)	(209,33)	(218,8)	(153,7)	(51,15)	(211,10)	(-9,7)	(-33,119)	(210,10)	(208,11)	
L1D -93>	(-8,52)	(-10,32)	(-2,13)	(0,25)	(51,42)	(-108,86)	(27,99)	(90,10)	(92,8)	(1,36)	(146,5)	(93,20)	(-29,16)	(-100,30)	(98,1)	(2,95)	
L1D -92>	(133,9)	(0,29)	(27,32)	(51,18)	(-9,26)	(151,10)	(90,88)	(50,22)	(93,40)	(43,1)	(-1,17)	(146,7)	(91,20)	(131,18)	(-124,22)	(132,16)	
L1D -91>	(67,0)	(91,98)	(47,0)	(46,1)	(87,0)	(93,0)	(-9,0)	(-12,4)	(5,13)	(48,0)	(-16,1)	(-1,0)	(-124,1)	(51,0)	(80,0)	(88,0)	
L1D -90>	(46,2)	(91,86)	(88,2)	(0,1)	(82,1)	(96,1)	(49,1)	(6,2)	(86,1)	(-8,2)	(-125,0)	(90,3)	(89,1)	(-1,0)	(152,0)	(137,0)	
L1D -89>	(98,1)	(225,11)	(-112,82)	(-104,107)	(220,106)	(-103,3)	(-16,112)	(-107,7)	(227,13)	(223,23)	(-4,10)	(-1,8)	(89,77)	(84,46)	(-108,39)	(133,21)	
L1D -88>	(6,69)	(0,96)	(79,7)	(129,7)	(133,24)	(73,3)	(47,9)	(90,1)	(89,5)	(80,2)	(52,5)	(26,25)	(1,124)	(51,4)	(-128,7)	(-129,11)	
L1D -87>	(0,59)	(98,92)	(-13,13)	(-130,6)	(52,3)	(154,2)	(89,5)	(-17,2)	(83,1)	(130,2)	(88,16)	(-129,3)	(-6,5)	(1,8)	(133,3)	(146,4)	
L1D -86>	(-18,127)	(135,0)	(-16,7)	(138,0)	(-4,0)	(87,0)	(46,0)	(94,0)	(86,1)	(83,0)	(-20,3)	(49,0)	(50,0)	(81,0)	(89,0)	(221,0)	
L1D -85>	(92,7)	(0,4)	(219,30)	(137,1)	(90,8)	(-132,15)	(-8,64)	(218,2)	(-113,4)	(-131,26)	(221,4)	(107,6)	(222,6)	(-108,38)	(-130,26)	(94,6)	
L1D -84>	(224,55)	(-109,31)	(218,66)	(86,1)	(-133,67)	(-132,85)	(-134,17)	(85,19)	(0,37)	(125,23)	(1,12)	(146,18)	(94,18)	(83,33)	(-108,18)	(154,12)	
L1D -83>	(82,52)	(-9,113)	(1,19)	(5,24)	(-5,25)	(-1,10)	(84,9)	(31,38)	(79,7)	(138,34)	(-134,18)	(80,1)	(81,9)	(108,10)	(-111,9)	(-133,20)	
L1D -82>	(78,1)	(44,3)	(117,81)	(80,2)	(134,2)	(125,5)	(81,2)	(8,21)	(126,1)	(2,15)	(6,77)	(-1,16)	(83,3)	(4,22)	(-5,3)	(-23,1)	
L1D -81>	(21,2)	(124,5)	(125,7)	(-1,5)	(78,17)	(4,4)	(116,14)	(132,2)	(80,3)	(83,3)	(82,5)	(126,4)	(27,1)	(-7,16)	(77,1)	(5,105)	
L1D -80>	(115,96)	(18,1)	(-7,2)	(-1,6)	(79,3)	(72,5)	(-27,1)	(31,9)	(77,6)	(91,2)	(125,10)	(6,9)	(120,3)	(123,6)	(83,4)	(146,3)	
L1D -79>	(75,1)	(31,2)	(61,4)	(0,3)	(91,2)	(79,91)	(78,4)	(76,5)	(122,2)	(77,5)	(111,14)	(146,3)	(125,3)	(81,6)	(118,2)	(-1,4)	
L1D -78>	(60,120)	(0,91)	(81,1)	(80,2)	(113,16)	(98,22)	(99,10)	(3,2)	(89,5)	(87,13)	(-1,10)	(133,4)	(146,2)	(76,5)	(79,3)	(75,3)	
L1D -77>	(117,19)	(0,43)	(152,10)	(78,34)	(73,22)	(40,101)	(1,59)	(4,3)	(121,21)	(13,15)	(92,5)	(125,7)	(120,14)	(15,4)	(79,66)	(94,12)	
L1D -76>	(0,120)	(-1,42)	(-5,8)	(2,18)	(79,20)	(82,5)	(74,1)	(38,2)	(117,21)	(134,49)	(-2,82)	(73,51)	(15,5)	(75,90)	(78,7)	(41,16)	
L1D -75>	(118,18)	(35,8)	(169,1)	(119,14)	(-4,9)	(77,30)	(154,19)	(34,13)	(-6,16)	(12,11)	(18,41)	(32,7)	(1,18)	(0,112)	(10,3)	(447,7)	
L1D -74>	(111,39)	(69,27)	(77,2)	(0,63)	(100,15)	(17,30)	(76,8)	(75,80)	(32,45)	(43,10)	(-1,16)	(61,13)	(89,6)	(74,33)	(1,4)	(73,4)	
L1D -73>	(111,45)	(-1,3)	(128,60)	(13,10)	(29,8)	(116,70)	(130,1)	(121,27)	(74,12)	(0,109)	(134,9)	(94,12)	(117,16)	(21,50)	(118,66)	(70,9)	
L1D -72>	(2,10)	(1,79)	(257,4)	(-35,3)	(0,10)	(89,1)	(28,5)	(-2,17)	(-4,2)	(-3,1)	(-21,8)	(131,1)	(-28,7)	(94,2)	(-1,14)	(117,3)	
L1D -71>	(-21,17)	(71,3)	(-8,4)	(1,102)	(66,2)	(61,5)	(132,4)	(118,16)	(11,1)	(0,2)	(-7,4)	(70,11)	(94,2)	(-1,8)	(73,12)	(129,12)	
L1D -70>	(94,7)	(21,21)	(25,14)	(267,6)	(10,10)	(81,8)	(29,1)	(-85,75)	(121,15)	(71,11)	(69,34)	(0,112)	(1,5)	(133,3)	(68,2)	(73,6)	
L1D -69>	(109,90)	(18,31)	(0,1)	(61,1)	(9,1)	(207,0)	(134,0)	(126,0)	(22,5)	(27,0)	(132,0)	(30,0)	(74,1)	(131,0)	(21,0)	(43,0)	
L1D -68>	(22,8)	(75,34)	(5,12)	(0,33)	(37,16)	(24,1)	(69,85)	(1,25)	(94,7)	(26,42)	(43,6)	(17,4)	(2,14)	(61,21)	(81,3)	(130,11)	
L1D -67>	(2,33)	(42,13)	(66,27)	(25,20)	(1,54)	(37,2)	(43,11)	(94,1)	(128,6)	(-14,43)	(0,28)	(61,13)	(3,5)	(67,11)	(122,75)	(15,69)	
L1D -66>	(-36,9)	(64,7)	(1,5)	(0,4)	(-45,65)	(30,0)	(-8,7)	(-34,24)	(21,25)	(-25,40)	(43,23)	(63,15)	(94,4)	(67,7)	(24,21)	(62,5)	
L1D -65>	(64,12)	(126,1)	(1,31)	(23,7)	(13,12)	(-30,9)	(94,3)	(-69,3)	(-22,77)	(6,3)	(-44,5)	(127,2)	(-35,78)	(43,20)	(31,2)	(107,7)	
L1D -64>	(15,3)	(42,1)	(1,77)	(59,0)	(64,1)	(2,1)	(0,1)	(63,0)	(45,2)	(43,4)	(-90,1)	(22,2)	(61,6)	(72,1)	(66,0)	(-70,1)	
L1D -63>	(-1,44)	(55,12)	(43,84)	(-87,12)	(21,74)	(63,117)	(68,7)	(59,15)	(-12,13)	(-91,1)	(26,6)	(1,33)	(51,2)	(-9,9)	(-13,4)	(61,18)	
L1D -62>	(0,74)	(65,6)	(63,27)	(62,20)	(45,4)	(1,19)	(43,42)	(20,40)	(60,10)	(42,9)	(26,37)	(-137,1)	(56,6)	(58,9)	(57,10)	(-12,35)	
L1D -61>	(46,3)	(1,93)	(53,5)	(42,5)	(-93,3)	(57,2)	(19,18)	(-108,1)	(59,14)	(-1,4)	(-72,1)	(-3,2)	(58,10)	(56,3)	(60,7)	(43,8)	
L1D -60>	(60,78)	(56,1)	(62,70)	(6,6)	(-1,42)	(58,41)	(61,47)	(18,9)	(8,7)	(99,29)	(1,22)	(67,11)	(59,53)	(-2,29)	(63,30)	(0,17)	
L1D -59>	(42,16)	(17,52)	(-13,20)	(-8,13)	(1,65)	(60,9)	(43,39)	(58,28)	(-1,29)	(61,54)	(57,17)	(53,1)	(-219,2)	(0,34)	(48,13)	(51,14)	
L1D -58>	(-16,9)	(54,15)	(-4,3)	(16,106)	(1,21)	(42,11)	(0,1)	(56,17)	(44,20)	(-20,13)	(57,15)	(47,19)	(61,9)	(43,14)	(-18,3)	(59,28)	
L1D -57>	(42,29)	(60,1)	(37,5)	(61,35)	(-47,6)	(15,78)	(57,99)	(58,23)	(1,35)	(46,10)	(56,23)	(-218,7)	(43,44)	(14,15)	(53,4)	(59,13)	
L1D -56>	(2,85)	(55,0)	(-216,0)	(0,0)	(-108,0)	(57,0)	(43,0)	(51,0)	(42,0)	(59,0)	(56,0)	(45,0)	(14,0)	(60,0)	(1,0)	(16,0)	
L1D -55>	(1,88)	(-1,28)	(43,83)	(13,92)	(42,16)	(58,8)	(-83,21)	(0,18)	(15,4)	(14,17)	(60,1)	(53,28)	(12,6)	(55,3)	(54,8)	(11,11)	
L1D -54>	(53,1)	(-27,52)	(11,12)	(-218,3)	(59,11)	(0,7)	(1,116)	(49,6)	(42,7)	(-84,15)	(10,13)	(43,18)	(-18,4)	(60,13)	(12,23)	(4,6)	
L1D -53>	(54,70)	(1,82)	(53,64)	(0,35)	(-3,45)	(11,80)	(58,6)	(42,17)	(48,14)	(51,42)	(10,39)	(9,10)	(161,1)	(-84,17)	(43,34)	(-18,29)	
L1D -52>	(1,107)	(-85,1)	(57,0)	(354,0)	(51,0)	(50,0)	(78,0)	(42,0)	(90,0)	(93,1)	(40,0)	(92,1)	(94,0)	(49,0)	(82,0)	(85,0)	
L1D -51>	(42,29)	(-85,47)	(-1,38)	(53,7)	(52,39)	(9,52)	(39,88)	(50,58)	(1,99)	(92,10)	(51,77)	(44,1)	(56,33)	(49,49)	(40,12)	(-5,10)	
L1D -50>	(1,109)	(51,23)	(0,5)	(43,9)	(4,9)	(2,6)	(48,8)	(-220,4)	(50,15)	(-1,7)	(91,3)	(60,1)	(42,5)	(-219,3)	(8,15)	(-218,2)	
L1D -49>	(44,11)	(1,27)	(6,11)	(34,1)	(43,34)	(5,13)	(50,10)	(9,10)	(-218,6)	(0,16)	(46,8)	(4,4)	(-86,7)	(2,24)	(-219,2)	(49,64)	
L1D -48>	(1,47)	(-218,21)	(46,11)	(6,24)	(12,5)	(88,1)	(4,18)	(51,26)	(2,29)	(-1,39)	(8,30)	(-219,13)	(-220,10)	(0,16)	(48,78)	(3,33)	
L1D -47>	(50,28)	(43,47)	(1,19)	(44,13)	(47,122)	(0,12)	(3,15)	(94,4)	(-1,11)	(45,15)	(5,17)	(-108,25)	(2,40)	(41,20)	(51,10)	(4,1)	
L1D -46>	(47,90)	(-4,1)	(1,96)	(46,4)	(40,6)	(45,12)	(-18,2)	(-1,5)	(2,4)	(41,8)	(94,2)	(42,2)	(93,4)	(38,1)	(50,2)	(44,11)	
L1D -45>	(30,17)	(1,10)	(3,59)	(48,30)	(60,1)	(13,8)	(-1,36)	(47,13)	(50,60)	(2,10)	(45,100)	(5,5)	(93,45)	(43,51)	(44,31)	(41,70)	
L1D -44>	(36,1)	(33,7)	(40,36)	(2,11)	(6,12)	(42,9)	(41,26)	(-1,17)	(47,2)	(29,11)	(-4,8)	(39,15)	(45,4)	(44,67)	(35,7)	(43,8)	
L1D -43>	(-7,30)	(9,48)	(47,92)	(6,34)	(38,34)	(43,61)	(-2,12)	(41,72)	(40,79)	(-1,41)	(34,12)	(7,38)	(42,92)	(-12,1)	(1,46)	(25,12)	
L1D -42>	(1,32)	(33,34)	(44,80)	(45,77)	(41,111)	(36,2)	(-3,35)	(2,88)	(43,84)	(40,120)	(39,41)	(-1,75)	(42,26)	(35,29)	(38,35)	(34,16)	
L1D -41>	(43,46)	(40,34)	(16,1)	(41,95)	(-1,51)	(27,10)	(34,12)	(45,28)	(0,35)	(42,20)	(46,18)	(47,35)	(2,46)	(38,16)	(1,37)	(49,24)	
L1D -40>	(-16,7)	(-2,5)	(-1,5)	(40,5)	(42,2)	(39,67)	(43,23)	(44,11)	(45,8)	(29,4)	(13,1)	(3,1)	(1,6)	(46,3)	(38,3)	(41,2)	
L1D -39>	(0,2)	(39,13)	(30,1)	(-7,2)	(38,92)	(-1,17)	(42,3)	(43,3)	(44,1)	(41,7)	(35,4)	(24,1)	(16,1)	(28,2)	(90,3)	(4,2)	
L1D -38>	(39,15)	(38,117)	(1,31)	(43,14)	(36,69)	(10,34)	(41,20)	(-92,1)	(42,22)	(40,15)	(29,4)	(37,13)	(-1,26)	(6,5)	(-2,21)	(0,9)	
L1D -37>	(-3,5)	(16,13)	(-22,4)	(196,11)	(40,18)	(1,22)	(5,5)	(31,12)	(2,1)	(39,13)	(3,13)	(41,12)	(37,78)	(38,8)	(36,2)	(-4,6)	
L1D -36>	(7,2)	(36,87)	(-3,3)	(38,57)	(11,56)	(-6,10)	(41,22)	(40,4)	(35,14)	(-1,16)	(102,46)	(52,5)	(37,10)	(42,6)	(1,8)	(94,3)	
L1D -35>	(0,4)	(-6,6)	(35,70)	(1,11)	(100,3)	(-82,24)	(-2,3)	(-81,12)	(16,1)	(-1,7)	(-80,21)	(-3,27)	(38,10)	(40,7)	(9,4)	(14,19)	
L1D -34>	(38,76)	(34,5)	(2,0)	(42,1)	(-14,0)	(-8,0)	(0,0)	(54,0)	(41,1)	(49,0)	(94,0)	(-7,1)	(33,0)	(-1,0)	(26,0)	(53,0)	
L1D -33>	(33,117)	(32,6)	(0,13)	(41,6)	(-1,10)	(1,25)	(44,2)	(42,7)	(-62,1)	(34,13)	(180,5)	(26,1)	(19,16)	(2,4)	(-9,4)	(36,4)	
L1D -32>	(-10,15)	(42,7)	(33,7)	(40,8)	(38,4)	(0,16)	(44,1)	(32,98)	(41,10)	(31,30)	(34,9)	(-8,10)	(1,30)	(-14,11)	(-141,5)	(-1,32)	
L1D -31>	(-7,7)	(12,41)	(2,19)	(31,103)	(-9,32)	(1,53)	(34,1)	(-1,30)	(-4,4)	(-2,25)	(8,35)	(4,41)	(33,24)	(0,19)	(-14,44)	(5,39)	
L1D -30>	(-23,8)	(-1,86)	(74,7)	(-3,6)	(-10,20)	(6,25)	(-9,1)	(3,57)	(8,78)	(-11,22)	(-12,38)	(1,25)	(29,9)	(30,81)	(-14,32)	(4,5)	
L1D -29>	(1,9)	(56,4)	(6,32)	(2,13)	(32,7)	(29,68)	(41,14)	(42,4)	(3,21)	(26,10)	(5,72)	(-11,5)	(-1,12)	(-219,6)	(28,5)	(4,1)	
L1D -28>	(1,92)	(41,8)	(-1,11)	(0,1)	(3,26)	(28,94)	(34,16)	(2,47)	(30,5)	(10,28)	(5,10)	(-14,19)	(25,10)	(-13,18)	(29,11)	(31,8)	
L1D -27>	(27,116)	(26,1)	(-25,1)	(29,1)	(6,1)	(-2,0)	(71,0)	(-1,0)	(40,0)	(-51,0)	(8,1)	(25,0)	(92,0)	(-15,0)	(41,0)	(1,5)	
L1D -26>	(0,31)	(34,56)	(25,31)	(27,33)	(4,1)	(1,59)	(33,66)	(2,26)	(26,93)	(19,26)	(67,8)	(35,16)	(45,17)	(-1,12)	(28,11)	(6,36)	
L1D -25>	(25,122)	(-1,17)	(91,7)	(-7,29)	(3,1)	(-12,44)	(-6,43)	(24,14)	(-11,27)	(0,25)	(26,16)	(-16,30)	(2,15)	(4,18)	(41,55)	(1,80)	
L1D -24>	(2,24)	(4,41)	(1,78)	(23,8)	(26,7)	(-6,47)	(20,1)	(41,14)	(-7,37)	(24,92)	(21,10)	(0,32)	(25,9)	(22,10)	(3,18)	(-1,31)	
L1D -23>	(3,17)	(6,30)	(0,62)	(22,46)	(-7,66)	(19,10)	(18,1)	(23,78)	(-42,14)	(-1,23)	(24,4)	(2,35)	(20,10)	(1,44)	(17,16)	(4,13)	
L1D -22>	(6,29)	(0,24)	(-332,7)	(23,21)	(-217,1)	(1,41)	(21,26)	(7,10)	(2,20)	(18,23)	(-7,36)	(22,70)	(16,18)	(250,9)	(-13,56)	(20,20)	
L1D -21>	(18,12)	(-3,10)	(4,9)	(16,70)	(-42,9)	(15,94)	(3,29)	(20,25)	(-10,16)	(-1,29)	(-78,1)	(21,75)	(6,30)	(1,30)	(0,14)	(2,36)	
L1D -20>	(1,6)	(-2,3)	(18,1)	(20,31)	(5,9)	(6,9)	(2,1)	(0,10)	(-218,1)	(13,87)	(40,1)	(19,1)	(26,2)	(28,1)	(15,1)	(16,1)	
L1D -19>	(7,7)	(5,5)	(-42,8)	(4,72)	(29,1)	(-7,14)	(13,15)	(18,3)	(19,12)	(15,15)	(16,6)	(1,9)	(6,17)	(3,4)	(43,4)	(14,11)	
L1D -18>	(1,11)	(-5,2)	(12,3)	(5,2)	(3,9)	(18,85)	(11,3)	(-2,25)	(6,8)	(7,1)	(4,10)	(-25,1)	(-1,1)	(-3,6)	(2,3)	(104,12)	
L1D -17>	(4,2)	(1,1)	(6,9)	(11,1)	(0,93)	(28,1)	(17,0)	(14,1)	(3,1)	(5,3)	(-2,3)	(12,0)	(31,1)	(2,8)	(-42,1)	(16,1)	
L1D -16>	(3,30)	(271,1)	(-2,30)	(1,92)	(16,48)	(17,8)	(14,15)	(9,32)	(-4,32)	(26,10)	(0,18)	(4,57)	(2,11)	(6,17)	(-216,3)	(11,21)	
L1D -15>	(1,43)	(14,14)	(47,1)	(13,21)	(11,49)	(5,42)	(9,29)	(12,34)	(28,8)	(6,60)	(4,74)	(-42,22)	(2,7)	(24,6)	(0,7)	(10,17)	
L1D -14>	(1,73)	(4,91)	(5,43)	(0,29)	(9,15)	(6,51)	(-42,24)	(-14,1)	(12,12)	(22,6)	(43,16)	(14,93)	(2,30)	(16,13)	(8,11)	(-2,35)	
L1D -13>	(1,31)	(5,62)	(0,6)	(4,64)	(-42,13)	(10,15)	(8,0)	(2,22)	(13,29)	(-331,1)	(3,32)	(-5,11)	(11,7)	(12,13)	(22,8)	(6,51)	
L1D -12>	(18,1)	(10,10)	(12,42)	(43,8)	(3,9)	(17,25)	(8,16)	(4,37)	(5,32)	(6,103)	(11,22)	(1,38)	(9,12)	(-42,18)	(0,23)	(2,37)	
L1D -11>	(15,3)	(7,4)	(-15,1)	(1,8)	(36,5)	(6,13)	(-42,2)	(11,110)	(-107,5)	(4,5)	(5,3)	(20,1)	(12,4)	(9,2)	(8,1)	(-46,19)	
L1D -10>	(1,74)	(0,35)	(117,1)	(3,46)	(8,19)	(7,23)	(-8,14)	(-10,24)	(2,45)	(9,39)	(5,38)	(18,16)	(-42,11)	(6,44)	(10,54)	(4,113)	
L1D -9>	(7,11)	(1,34)	(0,14)	(-1,8)	(-42,4)	(12,67)	(14,1)	(9,26)	(6,13)	(8,8)	(4,16)	(2,22)	(5,10)	(15,14)	(13,6)	(-14,9)	
L1D -8>	(0,29)	(-8,92)	(6,16)	(-42,9)	(4,30)	(1,34)	(7,19)	(-1,9)	(13,1)	(99,22)	(3,7)	(10,3)	(2,49)	(-3,17)	(-4,14)	(8,46)	
L1D -7>	(6,19)	(1,64)	(0,28)	(7,27)	(12,8)	(-11,4)	(34,8)	(9,12)	(-8,10)	(10,7)	(-5,0)	(27,4)	(4,11)	(5,11)	(2,13)	(-1,53)	
L1D -6>	(-2,32)	(1,83)	(0,4)	(-13,1)	(-15,9)	(-6,7)	(-11,12)	(-1,14)	(-9,11)	(4,8)	(5,25)	(-5,9)	(12,15)	(-7,5)	(11,4)	(6,31)	
L1D -5>	(6,33)	(4,17)	(0,6)	(-3,23)	(1,99)	(-16,1)	(-1,16)	(-8,14)	(8,8)	(-7,11)	(-10,11)	(3,6)	(-13,6)	(110,2)	(5,10)	(10,10)	
L1D -4>	(2,18)	(-11,41)	(4,116)	(-15,39)	(1,30)	(-1,13)	(-13,14)	(-10,1)	(-5,17)	(-3,23)	(3,47)	(-6,7)	(-8,16)	(13,5)	(-4,29)	(0,37)	
L1D -3>	(0,124)	(-20,2)	(-11,38)	(-1,43)	(-12,31)	(2,53)	(3,99)	(1,87)	(-5,61)	(4,27)	(10,14)	(-2,43)	(-15,45)	(-4,40)	(-9,24)	(-7,81)	
L1D -2>	(-6,1)	(-1,10)	(-3,3)	(1,34)	(-13,13)	(-15,13)	(0,6)	(-4,12)	(-19,6)	(13,11)	(-7,16)	(19,14)	(-2,4)	(-11,5)	(-5,23)	(2,124)	
L1D -1>	(-15,17)	(-7,50)	(-9,6)	(-10,2)	(-5,24)	(-6,5)	(-13,10)	(-19,3)	(-1,56)	(1,76)	(0,79)	(-4,9)	(-2,7)	(2,4)	(-21,2)	(87,1)	
L1D 0>	(17,2)	(0,116)	(306,1)	(14,1)	(5,1)	(-2,10)	(3,2)	(7,1)	(-334,1)	(-1,3)	(1,10)	(20,1)	(-10,1)	(-8,1)	(2,3)	(-226,1)	
L1D 1>	(1,93)	(2,4)	(-25,1)	(9,1)	(8,2)	(221,1)	(-5,5)	(10,1)	(-1,10)	(84,0)	(0,4)	(-4,1)	(3,3)	(5,5)	(-2,1)	(53,3)	
L1D 2>	(6,9)	(-7,11)	(1,94)	(-1,9)	(54,92)	(-6,13)	(17,64)	(5,7)	(-10,8)	(-5,1)	(-3,11)	(0,100)	(8,5)	(2,9)	(-2,36)	(43,3)	
L1D 3>	(1,103)	(-3,109)	(-41,1)	(-1,29)	(5,45)	(-6,6)	(-11,15)	(-13,22)	(0,25)	(2,19)	(-5,18)	(-9,11)	(7,7)	(-2,16)	(-4,9)	(3,15)	
L1D 4>	(1,36)	(-4,103)	(9,8)	(-42,2)	(21,1)	(-6,3)	(-7,7)	(2,10)	(11,24)	(10,9)	(8,23)	(3,7)	(0,7)	(-3,7)	(-1,15)	(6,5)	
L1D 5>	(-6,14)	(20,5)	(85,8)	(-69,15)	(-4,12)	(9,1)	(99,7)	(86,3)	(1,26)	(-11,8)	(3,8)	(0,7)	(6,18)	(-5,23)	(49,67)	(-2,5)	
L1D 6>	(5,125)	(0,26)	(-1,71)	(-6,70)	(2,65)	(-12,8)	(-14,9)	(-174,9)	(-11,18)	(-7,18)	(-5,23)	(-10,5)	(-3,17)	(20,1)	(1,39)	(8,47)	
L1D 7>	(-6,91)	(-7,108)	(4,7)	(9,11)	(-15,1)	(1,39)	(-4,60)	(-10,20)	(-5,29)	(-1,57)	(-2,40)	(-3,22)	(0,50)	(-42,19)	(2,9)	(13,3)	
L1D 8>	(-5,17)	(-3,36)	(1,111)	(-42,17)	(-6,34)	(3,36)	(-4,46)	(-7,38)	(-1,74)	(-2,31)	(-22,1)	(5,43)	(41,15)	(0,19)	(-8,127)	(8,93)	
L1D 9>	(218,1)	(-8,38)	(41,5)	(-2,77)	(1,36)	(-3,39)	(-4,31)	(-1,18)	(-42,12)	(-7,16)	(0,4)	(-6,45)	(27,16)	(-9,36)	(6,3)	(-5,7)	
L1D 10>	(-3,126)	(-6,30)	(-118,1)	(-8,65)	(-4,65)	(-1,52)	(-10,87)	(8,18)	(-42,29)	(1,16)	(41,18)	(2,20)	(-2,53)	(0,38)	(-13,10)	(-9,36)	
L1D 11>	(51,3)	(-3,5)	(1,118)	(-11,100)	(-5,2)	(-7,5)	(-6,8)	(6,2)	(-118,81)	(32,2)	(-4,20)	(27,2)	(260,1)	(-1,4)	(-10,4)	(-2,10)	
L1D 12>	(-11,70)	(-42,10)	(-4,16)	(-2,35)	(-8,28)	(-1,16)	(-3,118)	(1,27)	(-5,74)	(-10,28)	(-13,3)	(5,50)	(13,1)	(-6,14)	(-9,6)	(-12,83)	
L1D 13>	(-12,8)	(7,7)	(27,107)	(-11,4)	(-6,17)	(-7,11)	(-8,2)	(-4,10)	(-5,1)	(-120,1)	(-2,15)	(-126,1)	(-13,2)	(-1,5)	(-10,3)	(-3,4)	
L1D 14>	(-13,61)	(-2,48)	(8,8)	(-3,24)	(-12,35)	(-4,82)	(2,7)	(-10,32)	(-1,32)	(-11,20)	(-21,1)	(-6,28)	(-14,37)	(-7,36)	(-42,34)	(-5,20)	
L1D 15>	(-3,16)	(-14,82)	(-5,15)	(-42,15)	(-11,28)	(-6,14)	(5,1)	(-10,22)	(-12,19)	(-13,26)	(-4,56)	(-2,8)	(91,10)	(-1,32)	(32,8)	(0,4)	
L1D 16>	(-15,25)	(-12,9)	(-14,22)	(-16,1)	(-42,20)	(-4,42)	(-1,124)	(5,19)	(27,11)	(0,24)	(-7,13)	(-2,14)	(1,26)	(40,19)	(-13,17)	(-6,15)	
L1D 17>	(-2,11)	(-17,103)	(-15,14)	(-9,1)	(-13,2)	(1,1)	(-11,1)	(-14,3)	(13,1)	(7,1)	(0,1)	(-16,5)	(-12,1)	(-10,0)	(-1,2)	(-42,2)	
L1D 18>	(-17,6)	(-16,11)	(-3,13)	(-1,2)	(-6,3)	(1,8)	(-18,3)	(-13,27)	(-15,8)	(-42,8)	(86,8)	(-10,2)	(-20,113)	(-8,18)	(21,5)	(91,15)	
L1D 19>	(-16,6)	(-17,109)	(-15,19)	(1,17)	(-4,22)	(-42,15)	(-3,2)	(-19,9)	(-2,5)	(-18,8)	(-1,18)	(6,3)	(11,1)	(-5,2)	(0,15)	(-60,4)	
L1D 20>	(-16,24)	(-34,15)	(-20,113)	(-6,16)	(-1,15)	(-2,18)	(-17,11)	(-15,12)	(-18,14)	(5,1)	(0,10)	(-5,19)	(-21,8)	(-3,16)	(-19,15)	(-42,16)	
L1D 21>	(-2,80)	(-3,40)	(-26,3)	(0,1)	(7,17)	(-15,23)	(-19,54)	(-42,54)	(-20,30)	(-21,64)	(-17,35)	(-22,32)	(-1,37)	(-6,15)	(-18,53)	(-4,45)	
L1D 22>	(-18,71)	(-22,48)	(-108,1)	(-20,28)	(-5,31)	(-21,31)	(-1,38)	(-23,39)	(-4,86)	(-19,36)	(0,18)	(-17,30)	(-16,30)	(13,53)	(-42,55)	(-3,43)	
L1D 23>	(-1,30)	(-23,75)	(-4,104)	(-24,54)	(-2,73)	(-3,34)	(-16,1)	(-19,77)	(-21,65)	(-20,61)	(-17,11)	(0,25)	(-42,56)	(-22,24)	(-6,17)	(-18,46)	
L1D 24>	(-2,3)	(-1,82)	(-29,1)	(-20,13)	(-25,24)	(-24,27)	(-42,27)	(-6,3)	(-4,3)	(29,6)	(146,10)	(-5,19)	(-22,9)	(-3,14)	(-21,66)	(0,14)	
L1D 25>	(-21,49)	(-4,30)	(-2,91)	(0,9)	(2,7)	(-23,23)	(-26,27)	(-25,66)	(-19,5)	(-27,50)	(16,14)	(-6,1)	(-42,56)	(1,10)	(-1,16)	(-40,37)	
L1D 26>	(54,27)	(5,7)	(1,14)	(-21,16)	(-26,57)	(-40,4)	(-41,16)	(-5,5)	(-22,16)	(-23,16)	(-8,1)	(2,17)	(-29,10)	(-27,24)	(-42,71)	(-3,48)	
L1D 27>	(-34,83)	(14,1)	(0,1)	(-25,4)	(-24,1)	(1,0)	(-42,4)	(-23,3)	(-27,119)	(3,0)	(-40,0)	(4,10)	(-43,9)	(-22,0)	(-41,0)	(13,0)	
L1D 28>	(-5,30)	(-21,58)	(-1,26)	(72,9)	(-26,27)	(-85,4)	(-28,53)	(-41,19)	(-2,9)	(-19,4)	(-42,92)	(-24,1)	(-35,4)	(-29,48)	(-40,22)	(-27,27)	
L1D 29>	(1,22)	(-28,61)	(-29,33)	(-40,25)	(2,17)	(-22,1)	(11,9)	(0,15)	(-41,10)	(-2,6)	(-42,116)	(3,8)	(-30,36)	(-6,6)	(10,8)	(-1,12)	
L1D 30>	(-31,20)	(-30,7)	(-2,1)	(2,6)	(-15,1)	(0,12)	(-1,11)	(-27,5)	(1,10)	(-41,4)	(-42,64)	(-35,12)	(-21,8)	(-40,9)	(-39,14)	(-29,4)	
L1D 31>	(9,3)	(-1,3)	(2,8)	(-6,17)	(-4,1)	(-26,1)	(-41,18)	(1,18)	(-2,2)	(10,14)	(-32,19)	(-40,23)	(-42,71)	(-31,11)	(7,7)	(0,15)	
L1D 32>	(-32,23)	(-27,84)	(-31,39)	(1,10)	(70,10)	(-33,41)	(-29,32)	(-36,5)	(-42,115)	(-25,18)	(-1,55)	(-26,7)	(0,15)	(10,12)	(124,1)	(-40,3)	
L1D 33>	(-42,84)	(-40,17)	(-33,62)	(8,10)	(-41,8)	(-34,28)	(0,24)	(-1,49)	(1,14)	(9,14)	(-7,11)	(6,8)	(2,11)	(-31,10)	(-5,4)	(-2,1)	
L1D 34>	(-36,2)	(1,18)	(-43,7)	(-8,8)	(2,5)	(-42,35)	(4,69)	(-33,1)	(5,7)	(7,0)	(-35,17)	(-34,68)	(-1,7)	(0,16)	(-41,5)	(10,2)	
L1D 35>	(1,11)	(-38,16)	(2,8)	(4,9)	(-35,44)	(-117,4)	(-36,21)	(-40,8)	(6,1)	(-42,73)	(-3,10)	(-8,3)	(5,5)	(0,10)	(7,13)	(-37,4)	
L1D 36>	(-36,44)	(-29,1)	(2,24)	(4,13)	(-40,10)	(0,5)	(-7,6)	(-42,86)	(5,7)	(128,9)	(-2,23)	(-41,11)	(-37,27)	(3,9)	(6,6)	(10,10)	
L1D 37>	(-40,39)	(-34,55)	(10,1)	(-12,13)	(0,13)	(4,6)	(-1,5)	(-41,21)	(159,11)	(1,8)	(9,5)	(-39,18)	(-44,4)	(-38,67)	(-37,28)	(-42,93)	
L1D 38>	(-34,2)	(-42,3)	(1,3)	(-40,2)	(-39,9)	(-6,2)	(-38,1)	(76,1)	(-43,1)	(-37,1)	(0,3)	(-90,1)	(5,0)	(-2,5)	(12,0)	(11,107)	
L1D 39>	(0,4)	(11,13)	(-11,5)	(-21,7)	(-43,9)	(-41,5)	(54,2)	(10,1)	(-1,7)	(-42,30)	(-39,10)	(-48,1)	(-40,110)	(3,1)	(-99,9)	(-46,2)	
L1D 40>	(386,11)	(-92,3)	(0,7)	(1,11)	(-42,78)	(-5,7)	(-15,24)	(-43,28)	(-40,26)	(-41,21)	(-46,24)	(-44,24)	(-45,20)	(-11,15)	(-4,1)	(65,5)	
L1D 41>	(-3,15)	(-1,43)	(-45,7)	(-44,18)	(-15,13)	(-46,7)	(1,5)	(-7,2)	(-41,30)	(-42,72)	(0,3)	(-4,5)	(-8,5)	(-2,12)	(-11,10)	(-43,21)	
L1D 42>	(-43,106)	(-60,9)	(-94,16)	(-9,15)	(5,1)	(-42,65)	(-2,60)	(-16,12)	(-45,15)	(-40,20)	(65,15)	(-3,15)	(-19,4)	(-32,6)	(-15,17)	(-1,47)	
L1D 43>	(-40,50)	(1,18)	(13,5)	(-41,11)	(8,13)	(2,9)	(-42,104)	(9,8)	(6,5)	(-3,6)	(3,11)	(5,15)	(-34,8)	(0,8)	(21,1)	(-44,7)	
L1D 44>	(-41,9)	(7,7)	(-42,70)	(2,6)	(-46,4)	(-1,10)	(1,16)	(-45,11)	(5,1)	(-4,2)	(-60,2)	(-40,20)	(-44,11)	(11,2)	(12,1)	(-43,4)	
L1D 45>	(-46,9)	(2,3)	(-60,6)	(27,1)	(1,8)	(-42,74)	(-2,19)	(-41,4)	(-1,8)	(0,3)	(6,4)	(7,8)	(-44,3)	(-9,13)	(-40,15)	(-43,2)	
L1D 46>	(-64,2)	(1,14)	(-7,3)	(-2,4)	(-47,15)	(-3,8)	(-41,4)	(-1,15)	(-42,84)	(-60,4)	(2,11)	(-6,2)	(28,2)	(0,5)	(-43,8)	(6,6)	
L1D 47>	(-1,1)	(-5,1)	(-42,19)	(11,17)	(-4,9)	(-46,81)	(1,5)	(-60,3)	(-126,0)	(-3,2)	(-43,0)	(-48,4)	(-2,3)	(15,1)	(6,0)	(0,3)	
L1D 48>	(-44,13)	(-34,1)	(6,3)	(-5,7)	(-6,8)	(-2,14)	(-42,93)	(-47,11)	(-45,24)	(-1,20)	(-49,20)	(-11,2)	(-41,4)	(-60,12)	(0,7)	(-46,7)	
L1D 49>	(1,1)	(6,1)	(-118,3)	(-47,1)	(-2,1)	(100,1)	(-45,1)	(38,0)	(-10,0)	(-42,7)	(30,0)	(-11,120)	(-50,1)	(-1,0)	(-41,0)	(-54,1)	
L1D 50>	(-45,7)	(21,10)	(0,3)	(-46,3)	(-48,3)	(-47,7)	(-7,3)	(1,6)	(-49,3)	(-2,5)	(-51,11)	(-60,7)	(-3,6)	(6,6)	(-43,6)	(-42,78)	
L1D 51>	(-50,79)	(-8,8)	(-51,1)	(-42,120)	(-46,7)	(-60,11)	(42,17)	(-52,62)	(-7,40)	(2,5)	(-48,2)	(-55,10)	(-6,6)	(-12,12)	(5,9)	(-11,14)	
L1D 52>	(-1,6)	(-53,10)	(6,7)	(-42,106)	(-51,4)	(-6,5)	(-7,16)	(-60,9)	(5,1)	(-43,8)	(-8,4)	(-9,3)	(-52,4)	(106,2)	(-5,2)	(-2,5)	
L1D 53>	(-52,72)	(-53,0)	(6,0)	(106,0)	(-11,0)	(-60,0)	(-59,0)	(-29,0)	(-42,2)	(-128,0)	(-43,0)	(8,0)	(-45,0)	(-2,0)	(-10,0)	(-56,0)	
L1D 54>	(-109,82)	(108,1)	(-53,0)	(107,0)	(-2,0)	(-8,0)	(-39,0)	(-42,2)	(-44,0)	(-60,0)	(-1,1)	(3,0)	(-52,0)	(1,2)	(5,0)	(-11,0)	
L1D 55>	(-1,6)	(-54,14)	(-44,1)	(-43,5)	(4,1)	(-2,7)	(-42,101)	(-12,8)	(-60,4)	(-11,4)	(1,3)	(-56,2)	(-3,3)	(-6,4)	(3,1)	(-65,6)	
L1D 56>	(-68,1)	(-40,3)	(-3,4)	(-49,3)	(-54,9)	(-52,7)	(1,3)	(-60,8)	(6,4)	(-2,7)	(-11,34)	(-42,87)	(-13,12)	(-67,7)	(-1,22)	(2,10)	
L1D 57>	(-57,26)	(-11,30)	(-1,21)	(-60,8)	(-42,113)	(-75,3)	(-14,8)	(-2,16)	(-52,17)	(-55,4)	(0,1)	(-19,3)	(-12,4)	(-20,4)	(-43,2)	(-58,9)	
L1D 58>	(-11,126)	(-8,1)	(-62,2)	(-63,1)	(170,2)	(-42,14)	(-9,1)	(-24,1)	(-61,2)	(-19,1)	(-60,2)	(-56,1)	(-3,2)	(-43,3)	(-65,1)	(-5,1)	
L1D 59>	(-60,75)	(-61,13)	(-58,1)	(-1,37)	(-13,10)	(4,5)	(-42,96)	(-16,11)	(-3,25)	(-6,9)	(-63,20)	(-14,13)	(-11,23)	(-2,16)	(-62,9)	(-10,7)	
L1D 60>	(-11,7)	(-60,112)	(18,57)	(39,102)	(38,57)	(-154,8)	(-61,38)	(-17,6)	(0,2)	(-1,11)	(-133,2)	(-16,3)	(321,3)	(-9,2)	(-42,60)	(-2,16)	
L1D 61>	(37,4)	(-42,89)	(1,28)	(-18,18)	(146,6)	(-41,2)	(-44,3)	(-6,5)	(-58,20)	(18,11)	(39,30)	(-254,1)	(38,10)	(2,11)	(15,5)	(-60,57)	
L1D 62>	(-42,35)	(-3,1)	(196,119)	(-60,62)	(-19,10)	(37,11)	(27,3)	(4,6)	(5,5)	(0,3)	(-1,12)	(-59,10)	(1,4)	(-51,10)	(-61,3)	(-41,5)	
L1D 63>	(3,7)	(-58,2)	(-60,62)	(-81,3)	(-43,10)	(-1,4)	(-44,4)	(-20,11)	(-61,3)	(-42,65)	(-74,3)	(-254,1)	(-72,6)	(-59,6)	(-76,2)	(-93,1)	
L1D 64>	(2,20)	(-154,1)	(1,7)	(-60,54)	(-57,5)	(-21,17)	(-42,65)	(-1,16)	(-41,19)	(-59,11)	(-18,6)	(-19,6)	(-62,9)	(0,10)	(-64,45)	(-134,1)	
[...]
L1D 479>	(4,5)	(0,4)	(-48,1)	(-136,1)	(1,0)	(1,0)	(1,0)	(1,0)	(1,0)	(1,0)	(1,0)	(1,0)	(1,0)	(1,0)	(1,0)	(1,0)	
L1D 480>	(4,1)	(1,2)	(0,1)	(1,0)	(1,0)	(1,0)	(1,0)	(1,0)	(1,0)	(1,0)	(1,0)	(1,0)	(1,0)	(1,0)	(1,0)	(1,0)	
L1D 481>	(4,7)	(3,1)	(1,0)	(1,0)	(1,0)	(1,0)	(1,0)	(1,0)	(1,0)	(1,0)	(1,0)	(1,0)	(1,0)	(1,0)	(1,0)	(1,0)	
L1D 482>	(1,1)	(4,2)	(-484,1)	(-282,1)	(1,0)	(1,0)	(1,0)	(1,0)	(1,0)	(1,0)	(1,0)	(1,0)	(1,0)	(1,0)	(1,0)	(1,0)	
L1D 483>	(0,3)	(4,5)	(1,1)	(1,0)	(1,0)	(1,0)	(1,0)	(1,0)	(1,0)	(1,0)	(1,0)	(1,0)	(1,0)	(1,0)	(1,0)	(1,0)	
L1D 484>	(1,0)	(1,0)	(1,0)	(1,0)	(1,0)	(1,0)	(1,0)	(1,0)	(1,0)	(1,0)	(1,0)	(1,0)	(1,0)	(1,0)	(1,0)	(1,0)	
L1D 485>	(-1,1)	(4,4)	(-92,1)	(1,0)	(1,0)	(1,0)	(1,0)	(1,0)	(1,0)	(1,0)	(1,0)	(1,0)	(1,0)	(1,0)	(1,0)	(1,0)	
L1D 486>	(4,2)	(1,1)	(1,0)	(1,0)	(1,0)	(1,0)	(1,0)	(1,0)	(1,0)	(1,0)	(1,0)	(1,0)	(1,0)	(1,0)	(1,0)	(1,0)	
L1D 487>	(4,1)	(1,0)	(1,0)	(1,0)	(1,0)	(1,0)	(1,0)	(1,0)	(1,0)	(1,0)	(1,0)	(1,0)	(1,0)	(1,0)	(1,0)	(1,0)	
L1D 488>	(-488,1)	(1,0)	(1,0)	(1,0)	(1,0)	(1,0)	(1,0)	(1,0)	(1,0)	(1,0)	(1,0)	(1,0)	(1,0)	(1,0)	(1,0)	(1,0)	
L1D 489>	(4,1)	(0,1)	(1,0)	(1,0)	(1,0)	(1,0)	(1,0)	(1,0)	(1,0)	(1,0)	(1,0)	(1,0)	(1,0)	(1,0)	(1,0)	(1,0)	
L1D 490>	(-491,1)	(1,2)	(-204,1)	(0,1)	(1,0)	(1,0)	(1,0)	(1,0)	(1,0)	(1,0)	(1,0)	(1,0)	(1,0)	(1,0)	(1,0)	(1,0)	
L1D 491>	(-491,1)	(1,1)	(1,0)	(1,0)	(1,0)	(1,0)	(1,0)	(1,0)	(1,0)	(1,0)	(1,0)	(1,0)	(1,0)	(1,0)	(1,0)	(1,0)	
L1D 492>	(1,1)	(-10,1)	(2,1)	(0,1)	(-48,1)	(-492,1)	(1,0)	(1,0)	(1,0)	(1,0)	(1,0)	(1,0)	(1,0)	(1,0)	(1,0)	(1,0)	
L1D 493>	(4,1)	(1,0)	(1,0)	(1,0)	(1,0)	(1,0)	(1,0)	(1,0)	(1,0)	(1,0)	(1,0)	(1,0)	(1,0)	(1,0)	(1,0)	(1,0)	
L1D 494>	(1,2)	(-10,1)	(1,0)	(1,0)	(1,0)	(1,0)	(1,0)	(1,0)	(1,0)	(1,0)	(1,0)	(1,0)	(1,0)	(1,0)	(1,0)	(1,0)	
L1D 495>	(-1,1)	(4,1)	(1,0)	(1,0)	(1,0)	(1,0)	(1,0)	(1,0)	(1,0)	(1,0)	(1,0)	(1,0)	(1,0)	(1,0)	(1,0)	(1,0)	
L1D 496>	(1,0)	(1,0)	(1,0)	(1,0)	(1,0)	(1,0)	(1,0)	(1,0)	(1,0)	(1,0)	(1,0)	(1,0)	(1,0)	(1,0)	(1,0)	(1,0)	
L1D 497>	(-2,1)	(0,1)	(1,0)	(1,0)	(1,0)	(1,0)	(1,0)	(1,0)	(1,0)	(1,0)	(1,0)	(1,0)	(1,0)	(1,0)	(1,0)	(1,0)	
L1D 498>	(4,1)	(1,0)	(1,0)	(1,0)	(1,0)	(1,0)	(1,0)	(1,0)	(1,0)	(1,0)	(1,0)	(1,0)	(1,0)	(1,0)	(1,0)	(1,0)	
L1D 499>	(1,0)	(1,0)	(1,0)	(1,0)	(1,0)	(1,0)	(1,0)	(1,0)	(1,0)	(1,0)	(1,0)	(1,0)	(1,0)	(1,0)	(1,0)	(1,0)	
L1D 500>	(-488,1)	(1,0)	(1,0)	(1,0)	(1,0)	(1,0)	(1,0)	(1,0)	(1,0)	(1,0)	(1,0)	(1,0)	(1,0)	(1,0)	(1,0)	(1,0)	
L1D 501>	(4,1)	(1,0)	(1,0)	(1,0)	(1,0)	(1,0)	(1,0)	(1,0)	(1,0)	(1,0)	(1,0)	(1,0)	(1,0)	(1,0)	(1,0)	(1,0)	
L1D 502>	(1,1)	(1,0)	(1,0)	(1,0)	(1,0)	(1,0)	(1,0)	(1,0)	(1,0)	(1,0)	(1,0)	(1,0)	(1,0)	(1,0)	(1,0)	(1,0)	
L1D 503>	(4,1)	(1,0)	(1,0)	(1,0)	(1,0)	(1,0)	(1,0)	(1,0)	(1,0)	(1,0)	(1,0)	(1,0)	(1,0)	(1,0)	(1,0)	(1,0)	
L1D 504>	(1,0)	(1,0)	(1,0)	(1,0)	(1,0)	(1,0)	(1,0)	(1,0)	(1,0)	(1,0)	(1,0)	(1,0)	(1,0)	(1,0)	(1,0)	(1,0)	
L1D 505>	(1,0)	(1,0)	(1,0)	(1,0)	(1,0)	(1,0)	(1,0)	(1,0)	(1,0)	(1,0)	(1,0)	(1,0)	(1,0)	(1,0)	(1,0)	(1,0)	
L1D 506>	(0,1)	(1,0)	(1,0)	(1,0)	(1,0)	(1,0)	(1,0)	(1,0)	(1,0)	(1,0)	(1,0)	(1,0)	(1,0)	(1,0)	(1,0)	(1,0)	
L1D 507>	(1,0)	(1,0)	(1,0)	(1,0)	(1,0)	(1,0)	(1,0)	(1,0)	(1,0)	(1,0)	(1,0)	(1,0)	(1,0)	(1,0)	(1,0)	(1,0)	
L1D 508>	(1,0)	(1,0)	(1,0)	(1,0)	(1,0)	(1,0)	(1,0)	(1,0)	(1,0)	(1,0)	(1,0)	(1,0)	(1,0)	(1,0)	(1,0)	(1,0)	
L1D 509>	(1,0)	(1,0)	(1,0)	(1,0)	(1,0)	(1,0)	(1,0)	(1,0)	(1,0)	(1,0)	(1,0)	(1,0)	(1,0)	(1,0)	(1,0)	(1,0)	
L1D 510>	(1,0)	(1,0)	(1,0)	(1,0)	(1,0)	(1,0)	(1,0)	(1,0)	(1,0)	(1,0)	(1,0)	(1,0)	(1,0)	(1,0)	(1,0)	(1,0)	
L1D 511>	(1,0)	(1,0)	(1,0)	(1,0)	(1,0)	(1,0)	(1,0)	(1,0)	(1,0)	(1,0)	(1,0)	(1,0)	(1,0)	(1,0)	(1,0)	(1,0)	

L2C -64>	(1,176)	(2,51)	(-3,60)	(-1,51)	(7,10)	(-4,7)	(3,25)	(4,15)	(6,13)	(-8,7)	(0,23)	(-25,1)	(-6,8)	(-2,153)	(-5,11)	(5,21)	
L2C -63>	(0,1)	(1,76)	(3,11)	(2,12)	(5,4)	(7,3)	(4,1)	(17,1)	(9,4)	(6,1)	(1,0)	(1,0)	(1,0)	(1,0)	(1,0)	(1,0)	
L2C -62>	(58,1)	(1,26)	(2,10)	(5,2)	(13,3)	(-1,2)	(4,2)	(37,1)	(43,2)	(18,1)	(15,1)	(0,1)	(3,3)	(1,0)	(1,0)	(1,0)	
L2C -61>	(1,21)	(18,2)	(2,8)	(3,6)	(-1,3)	(4,1)	(5,2)	(11,3)	(7,2)	(8,2)	(9,2)	(55,1)	(59,2)	(0,1)	(14,1)	(43,1)	
L2C -60>	(49,1)	(1,8)	(23,1)	(12,1)	(9,2)	(18,3)	(58,1)	(59,4)	(60,2)	(2,4)	(0,2)	(32,1)	(7,3)	(4,2)	(3,2)	(14,1)	
L2C -59>	(1,21)	(9,2)	(3,1)	(23,3)	(59,4)	(-1,4)	(8,4)	(2,3)	(4,1)	(60,1)	(25,1)	(32,1)	(37,1)	(47,1)	(10,1)	(43,1)	
L2C -58>	(1,10)	(8,3)	(-3,2)	(9,3)	(25,2)	(55,1)	(6,2)	(-4,1)	(57,2)	(16,1)	(14,2)	(3,2)	(59,4)	(52,1)	(53,2)	(18,1)	
L2C -57>	(-1,2)	(1,40)	(14,1)	(2,2)	(49,1)	(9,2)	(16,2)	(57,1)	(56,3)	(51,1)	(22,1)	(0,4)	(47,2)	(8,1)	(27,1)	(11,1)	
L2C -56>	(1,41)	(2,38)	(4,5)	(33,1)	(22,3)	(3,8)	(9,11)	(25,7)	(56,7)	(-1,6)	(26,3)	(0,4)	(24,4)	(49,2)	(16,1)	(5,2)	
L2C -55>	(1,57)	(53,3)	(49,3)	(2,12)	(0,7)	(5,10)	(16,6)	(17,6)	(37,2)	(10,2)	(3,4)	(55,29)	(33,1)	(24,1)	(39,1)	(6,1)	
L2C -54>	(-1,5)	(1,54)	(9,4)	(4,4)	(12,1)	(22,2)	(50,2)	(3,4)	(40,1)	(53,3)	(24,1)	(54,4)	(51,4)	(11,2)	(2,11)	(49,1)	
L2C -53>	(1,31)	(54,9)	(20,1)	(32,2)	(49,3)	(0,3)	(53,2)	(50,2)	(59,3)	(48,4)	(3,3)	(2,8)	(8,3)	(51,7)	(9,4)	(31,5)	
L2C -52>	(56,2)	(2,4)	(1,33)	(51,5)	(-1,5)	(4,2)	(7,1)	(16,2)	(52,9)	(21,1)	(53,13)	(0,4)	(-7,3)	(54,2)	(48,1)	(38,1)	
L2C -51>	(0,5)	(51,8)	(53,1)	(1,32)	(52,1)	(-4,4)	(4,2)	(50,4)	(7,2)	(16,2)	(38,2)	(17,4)	(13,1)	(-1,5)	(2,1)	(33,2)	
L2C -50>	(17,4)	(-6,3)	(50,8)	(-5,9)	(-2,6)	(29,2)	(2,6)	(32,3)	(12,3)	(54,2)	(1,24)	(-1,6)	(3,1)	(46,1)	(-4,2)	(48,3)	
L2C -49>	(2,8)	(-1,4)	(48,3)	(16,3)	(1,40)	(-3,3)	(-6,2)	(5,2)	(6,2)	(-4,2)	(50,1)	(12,1)	(43,1)	(0,4)	(4,13)	(3,3)	
L2C -48>	(27,1)	(1,22)	(36,1)	(48,12)	(49,6)	(15,2)	(-1,7)	(9,5)	(51,3)	(3,4)	(20,1)	(18,1)	(2,1)	(7,2)	(50,2)	(53,1)	
L2C -47>	(1,28)	(7,5)	(-1,10)	(8,3)	(2,5)	(4,2)	(21,1)	(-4,3)	(39,1)	(-5,2)	(38,2)	(51,1)	(0,6)	(13,3)	(24,1)	(-6,5)	
L2C -46>	(-1,6)	(3,5)	(1,18)	(19,2)	(44,7)	(10,4)	(47,2)	(40,2)	(15,3)	(51,3)	(-3,2)	(8,2)	(-5,4)	(-2,1)	(4,7)	(18,1)	
L2C -45>	(21,3)	(1,26)	(2,13)	(3,8)	(4,2)	(49,3)	(9,1)	(-2,6)	(-3,3)	(-7,4)	(-17,1)	(0,5)	(7,2)	(6,7)	(33,1)	(17,3)	
L2C -44>	(7,13)	(42,1)	(45,4)	(2,29)	(-1,14)	(44,15)	(1,32)	(3,4)	(-16,4)	(4,4)	(6,7)	(5,2)	(-13,2)	(43,4)	(-2,2)	(0,5)	
L2C -43>	(1,32)	(3,9)	(-1,12)	(4,6)	(8,3)	(44,7)	(15,3)	(-5,3)	(0,4)	(42,5)	(32,3)	(6,1)	(11,2)	(-17,3)	(-8,5)	(10,5)	
L2C -42>	(20,2)	(2,9)	(1,35)	(3,15)	(5,4)	(14,4)	(-1,9)	(27,2)	(-9,10)	(19,4)	(-7,1)	(43,10)	(40,10)	(13,4)	(10,7)	(4,8)	
L2C -41>	(-14,6)	(1,41)	(2,10)	(-7,4)	(-1,13)	(4,6)	(19,3)	(18,1)	(40,8)	(0,14)	(52,2)	(20,5)	(42,10)	(14,2)	(41,6)	(17,2)	
L2C -40>	(1,29)	(27,7)	(-1,13)	(41,15)	(18,3)	(3,6)	(44,1)	(38,3)	(-3,4)	(59,2)	(0,6)	(4,5)	(50,1)	(14,4)	(-11,1)	(40,8)	
L2C -39>	(1,49)	(-1,25)	(2,22)	(37,2)	(38,22)	(12,2)	(41,16)	(39,21)	(11,12)	(6,9)	(16,7)	(40,40)	(5,10)	(13,4)	(-16,8)	(18,7)	
L2C -38>	(-1,13)	(1,32)	(4,1)	(2,16)	(3,12)	(37,8)	(-7,3)	(33,4)	(-16,2)	(39,26)	(38,3)	(34,2)	(41,7)	(44,2)	(45,3)	(6,5)	
L2C -37>	(40,8)	(-1,18)	(0,9)	(3,5)	(31,5)	(27,3)	(35,4)	(2,1)	(18,6)	(1,52)	(41,4)	(-2,6)	(32,5)	(-7,4)	(39,4)	(9,2)	
L2C -36>	(13,12)	(1,56)	(3,19)	(33,4)	(-8,6)	(15,3)	(18,6)	(10,3)	(0,9)	(-1,7)	(2,24)	(19,1)	(29,2)	(49,3)	(31,7)	(-3,3)	
L2C -35>	(1,76)	(7,4)	(3,7)	(-1,14)	(19,3)	(34,6)	(2,27)	(-2,13)	(-15,2)	(-3,12)	(12,2)	(-17,1)	(5,2)	(39,3)	(14,4)	(31,2)	
L2C -34>	(1,67)	(13,4)	(40,4)	(8,1)	(25,3)	(2,32)	(26,11)	(-2,5)	(38,3)	(6,3)	(28,10)	(35,7)	(0,6)	(19,3)	(10,3)	(12,6)	
L2C -33>	(1,121)	(-1,15)	(2,64)	(15,3)	(-5,4)	(27,23)	(3,24)	(28,3)	(14,6)	(36,3)	(12,2)	(30,6)	(9,5)	(31,5)	(38,1)	(33,13)	
L2C -32>	(1,181)	(3,50)	(-1,16)	(2,72)	(10,40)	(8,14)	(0,14)	(27,7)	(7,6)	(31,3)	(14,6)	(24,1)	(-7,3)	(17,4)	(33,8)	(15,3)	
L2C -31>	(1,61)	(2,44)	(32,10)	(0,16)	(-1,21)	(33,9)	(6,5)	(17,5)	(27,21)	(-4,1)	(-2,8)	(40,2)	(3,31)	(37,3)	(10,7)	(28,8)	
L2C -30>	(13,7)	(1,75)	(2,62)	(32,6)	(-1,26)	(28,7)	(3,23)	(31,1)	(-2,8)	(30,3)	(8,6)	(17,13)	(9,5)	(0,17)	(16,2)	(6,4)	
L2C -29>	(14,6)	(1,77)	(5,8)	(19,3)	(3,13)	(36,5)	(7,5)	(11,2)	(28,15)	(27,9)	(-1,26)	(50,2)	(4,10)	(2,55)	(15,8)	(12,1)	
L2C -28>	(9,5)	(27,8)	(-15,1)	(1,102)	(29,10)	(-4,6)	(20,4)	(30,6)	(-1,21)	(0,35)	(4,9)	(7,5)	(3,20)	(2,31)	(-2,7)	(16,11)	
L2C -27>	(28,11)	(1,102)	(3,29)	(-1,41)	(6,8)	(2,67)	(0,62)	(27,16)	(20,12)	(31,6)	(14,1)	(13,4)	(8,11)	(10,15)	(21,9)	(5,10)	
L2C -26>	(2,53)	(1,123)	(3,15)	(7,17)	(-1,47)	(8,8)	(29,5)	(24,7)	(10,1)	(-2,10)	(27,7)	(25,8)	(6,10)	(26,6)	(-4,7)	(17,7)	
L2C -25>	(6,9)	(9,24)	(14,24)	(1,65)	(2,38)	(-1,50)	(0,10)	(19,4)	(-10,1)	(24,6)	(17,7)	(3,14)	(31,4)	(13,4)	(8,8)	(-5,6)	
L2C -24>	(1,70)	(18,13)	(17,6)	(-1,50)	(2,14)	(21,8)	(3,24)	(-3,9)	(-15,4)	(15,2)	(29,3)	(-2,26)	(32,1)	(4,16)	(30,2)	(23,5)	
L2C -23>	(39,4)	(1,94)	(5,13)	(-1,53)	(24,7)	(-3,7)	(2,16)	(21,7)	(-12,9)	(8,8)	(22,7)	(4,9)	(14,15)	(31,1)	(3,11)	(27,5)	
L2C -22>	(1,79)	(-1,64)	(-3,18)	(-16,6)	(-4,12)	(14,9)	(16,14)	(19,12)	(13,9)	(31,1)	(27,9)	(2,19)	(9,7)	(24,9)	(25,10)	(0,6)	
L2C -21>	(-2,23)	(1,71)	(-1,70)	(48,1)	(2,13)	(11,24)	(8,9)	(5,10)	(16,8)	(-12,3)	(21,4)	(22,4)	(7,3)	(-3,11)	(10,9)	(-6,12)	
L2C -20>	(-1,47)	(1,84)	(-6,10)	(2,19)	(-5,14)	(-3,8)	(-2,13)	(4,7)	(43,1)	(42,3)	(16,8)	(11,9)	(57,2)	(18,16)	(5,5)	(19,10)	
L2C -19>	(1,158)	(-2,15)	(3,61)	(7,10)	(5,6)	(14,1)	(-1,50)	(11,6)	(17,10)	(10,8)	(12,16)	(-15,5)	(18,39)	(2,43)	(19,14)	(9,5)	
L2C -18>	(-1,18)	(1,206)	(2,19)	(25,7)	(28,11)	(19,64)	(0,10)	(18,11)	(3,13)	(-5,6)	(-12,1)	(-2,21)	(22,4)	(16,12)	(17,14)	(27,7)	
L2C -17>	(25,1)	(18,82)	(1,234)	(-7,4)	(2,25)	(-1,11)	(19,23)	(-3,6)	(-6,4)	(-5,8)	(-2,55)	(30,2)	(13,4)	(3,16)	(27,3)	(22,5)	
L2C -16>	(1,148)	(-12,6)	(4,9)	(23,3)	(2,154)	(0,43)	(3,147)	(-3,8)	(17,15)	(-1,51)	(16,42)	(12,8)	(28,13)	(8,4)	(-11,7)	(15,1)	
L2C -15>	(1,160)	(-1,38)	(-2,36)	(6,18)	(12,18)	(9,14)	(15,23)	(14,17)	(-9,1)	(10,11)	(0,13)	(3,17)	(-13,8)	(2,28)	(32,4)	(27,8)	
L2C -14>	(1,161)	(-2,18)	(-3,22)	(2,183)	(-1,55)	(16,8)	(6,1)	(8,16)	(13,29)	(15,22)	(-7,7)	(-6,11)	(12,93)	(7,32)	(4,72)	(20,8)	
L2C -13>	(1,233)	(14,24)	(3,20)	(6,22)	(2,39)	(15,1)	(11,49)	(4,70)	(27,17)	(12,24)	(8,10)	(16,13)	(-2,19)	(0,11)	(7,17)	(13,36)	
L2C -12>	(1,240)	(2,42)	(-1,73)	(-23,1)	(-8,9)	(17,12)	(3,30)	(0,21)	(-16,9)	(8,13)	(6,19)	(10,48)	(-6,9)	(9,11)	(4,16)	(12,20)	
L2C -11>	(1,240)	(3,45)	(17,21)	(-1,77)	(10,35)	(6,12)	(2,67)	(27,5)	(14,13)	(7,17)	(-2,60)	(12,42)	(-16,1)	(9,25)	(20,4)	(11,35)	
L2C -10>	(10,41)	(-13,1)	(1,219)	(9,48)	(11,49)	(14,39)	(16,17)	(-1,137)	(5,57)	(-4,42)	(-2,30)	(0,105)	(6,34)	(3,26)	(2,63)	(-17,10)	
L2C -9>	(10,27)	(1,128)	(-1,73)	(6,30)	(4,19)	(-2,9)	(3,39)	(2,32)	(11,33)	(-3,11)	(0,24)	(7,16)	(5,20)	(12,1)	(-4,8)	(8,11)	
L2C -8>	(4,60)	(6,15)	(-1,86)	(1,181)	(7,20)	(16,10)	(9,44)	(3,176)	(0,33)	(59,1)	(2,52)	(5,63)	(10,21)	(8,25)	(-2,38)	(26,10)	
L2C -7>	(1,233)	(-2,13)	(6,38)	(9,26)	(8,41)	(2,89)	(-1,65)	(5,52)	(-7,1)	(4,29)	(-13,9)	(3,25)	(0,17)	(-8,8)	(7,17)	(17,6)	
L2C -6>	(1,215)	(-2,24)	(4,75)	(5,42)	(49,1)	(-6,11)	(18,8)	(2,48)	(6,79)	(-1,72)	(9,46)	(-3,14)	(3,33)	(7,53)	(24,5)	(10,20)	
L2C -5>	(2,50)	(1,227)	(6,93)	(8,48)	(5,42)	(-5,24)	(-1,76)	(-6,6)	(3,45)	(0,25)	(-7,8)	(4,145)	(-2,108)	(-4,33)	(-3,48)	(-14,1)	
L2C -4>	(1,148)	(2,42)	(-4,23)	(-1,123)	(5,36)	(-8,1)	(-2,25)	(-3,45)	(11,4)	(3,29)	(6,29)	(-6,14)	(8,7)	(-5,20)	(0,30)	(4,44)	
L2C -3>	(1,245)	(2,99)	(-1,242)	(4,106)	(-4,9)	(3,52)	(-5,16)	(-3,16)	(0,44)	(10,17)	(6,15)	(22,50)	(5,67)	(11,1)	(-2,47)	(7,11)	
L2C -2>	(-2,6)	(-9,5)	(4,14)	(-8,1)	(3,23)	(5,7)	(18,6)	(-1,66)	(7,3)	(-4,3)	(-3,6)	(2,30)	(-5,5)	(0,129)	(1,90)	(6,2)	
L2C -1>	(-1,137)	(4,15)	(3,53)	(-16,5)	(1,111)	(-9,0)	(-3,10)	(-4,8)	(-6,4)	(-2,13)	(0,59)	(2,120)	(5,11)	(-10,1)	(-5,6)	(7,4)	
L2C 0>	(1,6)	(18,1)	(0,129)	(-7,0)	(2,1)	(29,0)	(-1,32)	(3,1)	(6,0)	(4,1)	(-14,0)	(21,0)	(17,0)	(-5,1)	(-3,0)	(-2,2)	
L2C 1>	(1,180)	(-2,13)	(2,34)	(0,10)	(-1,31)	(-4,10)	(-5,9)	(4,10)	(22,1)	(-3,17)	(5,2)	(3,27)	(-30,1)	(7,5)	(18,6)	(-6,4)	
L2C 2>	(1,239)	(7,8)	(-2,59)	(-5,16)	(2,43)	(5,7)	(-1,238)	(-6,9)	(-56,1)	(-4,12)	(0,12)	(18,28)	(4,11)	(3,35)	(-3,23)	(8,7)	
L2C 3>	(-1,67)	(1,187)	(18,12)	(-3,18)	(2,38)	(-5,52)	(-4,57)	(-8,23)	(3,14)	(-6,9)	(-2,38)	(-14,1)	(4,4)	(0,6)	(5,3)	(19,8)	
L2C 4>	(1,170)	(20,1)	(14,4)	(-3,72)	(3,46)	(-2,27)	(-1,66)	(-5,27)	(-6,8)	(6,6)	(18,21)	(7,8)	(2,30)	(-4,44)	(4,9)	(-8,16)	
L2C 5>	(1,255)	(2,39)	(-1,76)	(3,27)	(-4,38)	(4,12)	(-12,1)	(-6,23)	(-2,43)	(-10,10)	(-7,16)	(18,81)	(7,8)	(-3,22)	(-5,36)	(0,6)	
L2C 6>	(1,181)	(-8,12)	(-1,54)	(3,26)	(-6,38)	(2,35)	(-5,104)	(0,38)	(7,8)	(5,15)	(-7,15)	(4,12)	(27,1)	(6,15)	(-3,22)	(-2,25)	
L2C 7>	(-8,10)	(1,157)	(-9,11)	(-2,21)	(-1,85)	(3,26)	(0,13)	(-6,55)	(14,62)	(-27,1)	(-4,81)	(-7,13)	(2,47)	(-5,64)	(6,2)	(8,4)	
L2C 8>	(6,7)	(1,139)	(-1,54)	(2,52)	(3,16)	(4,10)	(-8,20)	(5,6)	(-6,17)	(-2,15)	(14,8)	(-4,26)	(-7,11)	(-5,74)	(17,1)	(-3,15)	
L2C 9>	(1,136)	(-4,38)	(-1,36)	(2,34)	(-5,32)	(-8,32)	(14,8)	(-2,23)	(-10,16)	(4,8)	(-13,19)	(-15,1)	(7,4)	(-6,16)	(6,4)	(-11,14)	
L2C 10>	(1,98)	(-9,29)	(-14,20)	(-1,69)	(-5,161)	(2,31)	(5,19)	(11,2)	(9,5)	(-6,16)	(-10,30)	(18,2)	(-8,14)	(-22,4)	(-2,15)	(-4,74)	
L2C 11>	(2,40)	(-1,128)	(1,225)	(4,21)	(-14,128)	(-10,59)	(5,2)	(3,32)	(-5,51)	(-7,29)	(11,10)	(-13,43)	(-4,144)	(-2,28)	(-9,26)	(-8,36)	
L2C 12>	(1,204)	(-5,220)	(-13,37)	(-11,49)	(-1,104)	(-2,57)	(6,17)	(3,18)	(-12,14)	(-4,117)	(-14,104)	(5,17)	(-16,1)	(4,19)	(2,31)	(-10,37)	
L2C 13>	(16,1)	(1,197)	(-1,91)	(2,33)	(-5,28)	(-28,6)	(0,24)	(-21,16)	(-23,11)	(17,5)	(6,13)	(3,28)	(-16,18)	(4,32)	(-10,28)	(-2,26)	
L2C 14>	(1,169)	(2,60)	(-4,32)	(13,10)	(-14,45)	(4,25)	(0,31)	(-12,24)	(-6,17)	(-13,104)	(-18,11)	(26,1)	(-15,28)	(-16,18)	(7,7)	(3,21)	
L2C 15>	(1,139)	(-14,73)	(4,22)	(2,26)	(5,12)	(0,18)	(-4,27)	(-15,33)	(-1,36)	(-8,10)	(-27,7)	(-5,44)	(3,16)	(-33,1)	(-6,11)	(-13,12)	
L2C 16>	(1,147)	(-18,34)	(-1,45)	(2,77)	(-16,125)	(-2,12)	(16,1)	(-17,30)	(14,10)	(0,48)	(-15,23)	(-4,15)	(6,20)	(3,10)	(36,4)	(24,5)	
L2C 17>	(-1,65)	(1,113)	(-9,1)	(-13,16)	(4,20)	(-2,19)	(-14,8)	(-18,69)	(-17,32)	(13,6)	(18,5)	(-16,88)	(-5,21)	(-28,7)	(-4,28)	(-3,9)	
L2C 18>	(-1,7)	(-17,164)	(-23,1)	(-25,2)	(1,5)	(-16,30)	(2,3)	(-18,6)	(8,1)	(-20,1)	(-55,1)	(19,2)	(-33,1)	(-22,1)	(-19,3)	(-8,1)	
L2C 19>	(2,48)	(7,1)	(-18,249)	(-1,165)	(1,80)	(-39,11)	(-16,89)	(-19,9)	(-6,14)	(4,4)	(17,5)	(-17,9)	(-4,4)	(-12,6)	(-26,12)	(-27,6)	
L2C 20>	(1,64)	(-10,9)	(-18,64)	(-8,12)	(4,12)	(-1,63)	(-27,20)	(12,27)	(-22,32)	(-19,18)	(3,31)	(-14,5)	(-12,1)	(-28,2)	(-17,88)	(2,17)	
L2C 21>	(1,82)	(-2,1)	(-6,8)	(-20,16)	(-1,41)	(-5,13)	(-22,53)	(-13,5)	(-23,9)	(-18,7)	(-14,9)	(20,2)	(-17,9)	(6,7)	(-4,9)	(2,18)	
L2C 22>	(1,43)	(-17,18)	(-4,9)	(-18,160)	(-25,4)	(-1,26)	(2,11)	(-22,3)	(6,5)	(-31,2)	(3,3)	(-16,5)	(-24,3)	(-20,1)	(-2,1)	(-3,4)	
L2C 23>	(1,89)	(10,1)	(5,5)	(-9,6)	(-2,10)	(-23,4)	(-5,7)	(-22,65)	(12,2)	(-21,5)	(-20,2)	(2,8)	(-18,77)	(-25,10)	(-35,3)	(-27,8)	
L2C 24>	(-32,14)	(1,67)	(-13,9)	(-1,26)	(-18,4)	(-17,12)	(2,13)	(3,6)	(-29,5)	(-9,4)	(-27,10)	(-6,8)	(-22,24)	(-25,7)	(6,1)	(-16,5)	
L2C 25>	(1,121)	(-22,6)	(34,1)	(-24,14)	(-11,4)	(-1,47)	(-16,8)	(-25,17)	(0,13)	(-2,3)	(-19,5)	(2,17)	(-23,13)	(-32,2)	(-35,2)	(-26,5)	
L2C 26>	(1,80)	(18,4)	(-7,5)	(-1,45)	(-11,1)	(-16,4)	(-17,8)	(-29,6)	(-26,13)	(3,15)	(-4,21)	(2,19)	(0,8)	(-8,2)	(-51,2)	(-9,8)	
L2C 27>	(-26,24)	(-1,43)	(-4,18)	(-15,5)	(-7,1)	(-6,11)	(-28,13)	(-25,11)	(-21,13)	(-35,6)	(-3,8)	(-39,4)	(-29,11)	(1,108)	(-20,8)	(-2,20)	
L2C 28>	(1,110)	(-5,15)	(-39,3)	(-21,9)	(-13,1)	(-12,10)	(-35,4)	(-27,25)	(-3,9)	(-17,9)	(2,9)	(-26,14)	(-28,25)	(-22,10)	(-32,4)	(-1,43)	
L2C 29>	(3,15)	(-27,9)	(1,106)	(-29,1)	(-1,42)	(-6,8)	(-21,3)	(-5,7)	(5,6)	(-32,9)	(-20,3)	(-12,4)	(-36,4)	(-26,7)	(2,13)	(-2,7)	
L2C 30>	(-1,49)	(-22,8)	(1,97)	(-31,9)	(-29,8)	(-24,9)	(-32,33)	(-10,1)	(-4,13)	(-15,4)	(6,3)	(-11,4)	(-2,8)	(-6,6)	(-28,10)	(-39,5)	
L2C 31>	(1,119)	(-8,5)	(8,3)	(-7,7)	(2,12)	(-32,4)	(-3,4)	(3,19)	(-29,4)	(-6,10)	(-1,25)	(-38,1)	(-16,5)	(-33,5)	(-40,3)	(4,4)	
L2C 32>	(1,113)	(2,14)	(-20,9)	(-27,4)	(-31,6)	(-5,13)	(-1,35)	(-30,7)	(-13,1)	(3,6)	(-32,33)	(-21,10)	(-33,6)	(-34,8)	(-17,4)	(-4,5)	
L2C 33>	(-34,14)	(1,66)	(3,18)	(-21,1)	(-16,11)	(2,17)	(-31,10)	(-51,4)	(-29,8)	(-24,2)	(-39,3)	(-26,12)	(-4,5)	(-1,26)	(-2,6)	(-32,12)	
L2C 34>	(2,20)	(1,97)	(-31,7)	(-27,4)	(-33,17)	(-7,5)	(-1,30)	(-34,9)	(-3,8)	(-45,1)	(-21,3)	(3,10)	(-39,6)	(-30,9)	(-2,10)	(-51,2)	
L2C 35>	(7,6)	(1,70)	(2,31)	(-45,3)	(-35,6)	(-10,3)	(-39,13)	(-2,14)	(-1,21)	(3,7)	(-38,1)	(-12,2)	(-17,21)	(-7,3)	(-23,6)	(-25,2)	
L2C 36>	(1,41)	(2,15)	(-19,2)	(-39,18)	(-1,13)	(-27,1)	(-17,2)	(-32,3)	(-13,1)	(-52,2)	(-35,6)	(-33,2)	(-2,4)	(-38,3)	(-6,1)	(3,10)	
L2C 37>	(-21,6)	(-37,3)	(1,41)	(3,2)	(-39,26)	(2,27)	(-1,14)	(-22,4)	(-29,3)	(-46,2)	(-4,3)	(6,2)	(-36,3)	(-23,1)	(-3,6)	(-45,1)	
L2C 38>	(-1,18)	(1,24)	(2,20)	(-39,34)	(-17,4)	(-54,3)	(-28,6)	(3,2)	(12,1)	(-4,3)	(-50,1)	(-37,2)	(-36,2)	(-21,1)	(-8,3)	(-23,3)	
L2C 39>	(1,28)	(0,9)	(17,10)	(-1,22)	(-41,6)	(-42,2)	(-39,35)	(3,8)	(-40,4)	(2,15)	(-36,3)	(-13,3)	(-6,2)	(-10,1)	(-17,2)	(-14,1)	
L2C 40>	(-39,40)	(1,153)	(-25,2)	(-29,1)	(3,13)	(2,11)	(-7,3)	(0,6)	(-54,1)	(4,3)	(-37,1)	(-40,5)	(-1,16)	(-26,1)	(-42,10)	(-20,3)	
L2C 41>	(-1,16)	(2,17)	(-23,4)	(0,10)	(1,92)	(-42,20)	(-8,1)	(-20,2)	(-18,2)	(4,1)	(-19,4)	(-27,3)	(3,10)	(-33,3)	(-40,2)	(-39,6)	
L2C 42>	(1,40)	(-43,17)	(-1,12)	(-34,4)	(-48,3)	(-42,7)	(-26,4)	(-41,7)	(-5,5)	(-51,2)	(-11,1)	(-31,2)	(-23,2)	(-44,2)	(-16,3)	(6,1)	
L2C 43>	(1,47)	(2,9)	(-35,4)	(0,2)	(-34,2)	(-44,10)	(-42,5)	(-1,11)	(-33,4)	(-45,1)	(-28,3)	(-39,11)	(-4,7)	(-22,4)	(-41,2)	(-2,4)	
L2C 44>	(-33,1)	(2,9)	(3,4)	(-55,1)	(-44,3)	(0,15)	(-32,3)	(-16,1)	(1,25)	(-1,9)	(-39,8)	(-20,1)	(-45,1)	(-25,2)	(-11,1)	(-2,3)	
L2C 45>	(-1,7)	(1,20)	(-29,1)	(-4,2)	(-41,1)	(-32,2)	(-39,16)	(-60,1)	(-38,2)	(-35,3)	(2,11)	(5,2)	(-18,4)	(-40,3)	(-17,2)	(-31,2)	
L2C 46>	(-54,5)	(-1,3)	(-44,13)	(3,11)	(-25,1)	(-49,2)	(-39,3)	(-48,5)	(-47,5)	(-3,1)	(7,1)	(1,41)	(-35,1)	(2,7)	(0,6)	(-45,10)	
L2C 47>	(-34,2)	(-44,1)	(1,29)	(-46,5)	(-24,3)	(-21,1)	(-26,3)	(-52,1)	(2,8)	(-40,5)	(10,1)	(5,3)	(-17,3)	(-45,2)	(4,2)	(6,6)	
L2C 48>	(-49,11)	(-54,15)	(-47,19)	(-1,1)	(-51,5)	(1,35)	(-52,5)	(-50,3)	(-48,13)	(-27,4)	(-44,2)	(2,3)	(-22,3)	(-42,4)	(6,4)	(-17,2)	
L2C 49>	(1,47)	(-48,7)	(-26,2)	(-40,11)	(-50,4)	(-32,3)	(-51,3)	(-23,1)	(-16,2)	(-7,1)	(-3,3)	(-52,7)	(-44,3)	(-46,1)	(2,7)	(-58,1)	
L2C 50>	(1,31)	(-48,3)	(-49,11)	(-1,14)	(4,3)	(-41,1)	(-52,7)	(2,10)	(-47,1)	(-44,1)	(-51,3)	(-55,9)	(-36,1)	(0,9)	(-53,2)	(-39,6)	
L2C 51>	(-19,7)	(1,30)	(0,4)	(-52,4)	(-35,3)	(-53,4)	(-41,2)	(-23,3)	(-46,1)	(-47,5)	(-30,1)	(-6,4)	(-17,1)	(5,2)	(-1,6)	(-45,1)	
L2C 52>	(1,45)	(-53,10)	(0,2)	(-42,1)	(-52,7)	(-13,3)	(-1,8)	(-41,2)	(-15,1)	(-59,1)	(-51,4)	(-43,4)	(-20,4)	(-2,2)	(-54,3)	(-4,2)	
L2C 53>	(-2,1)	(-54,4)	(-1,5)	(1,17)	(-44,6)	(-41,5)	(-51,6)	(-50,2)	(-55,4)	(-3,1)	(-30,1)	(-60,4)	(0,5)	(2,3)	(-42,1)	(5,1)	
L2C 54>	(-45,2)	(-28,2)	(-42,1)	(-54,4)	(1,21)	(-46,3)	(-27,1)	(-61,1)	(5,1)	(-1,5)	(-6,1)	(-22,2)	(-56,3)	(0,3)	(-2,3)	(-41,3)	
L2C 55>	(-55,20)	(1,15)	(0,42)	(-21,3)	(-37,2)	(-57,6)	(2,3)	(-41,8)	(-22,6)	(-54,3)	(-38,3)	(-50,9)	(-39,4)	(-42,2)	(-53,1)	(-6,1)	
L2C 56>	(1,16)	(-1,1)	(-36,2)	(0,3)	(-26,1)	(-25,1)	(-58,1)	(-22,2)	(-55,1)	(-56,7)	(-42,2)	(-30,2)	(-24,1)	(-51,1)	(-43,2)	(-57,2)	
L2C 57>	(1,13)	(-1,1)	(-48,1)	(-54,2)	(-42,1)	(-56,3)	(3,1)	(-17,1)	(-46,1)	(-27,1)	(-37,1)	(-38,1)	(-26,1)	(-59,1)	(0,1)	(-2,1)	
L2C 58>	(1,6)	(-55,2)	(-44,1)	(-29,1)	(-57,1)	(-42,1)	(-26,2)	(-1,3)	(-58,2)	(0,2)	(-25,1)	(-8,1)	(-33,1)	(-36,1)	(3,1)	(1,0)	
L2C 59>	(-48,1)	(0,3)	(1,30)	(-52,9)	(-59,3)	(-27,7)	(-3,1)	(-43,3)	(-8,4)	(-37,1)	(-1,6)	(-16,4)	(-20,1)	(-18,2)	(-6,1)	(-49,2)	
L2C 60>	(1,2)	(3,3)	(-59,1)	(-53,2)	(-1,7)	(-26,3)	(-35,1)	(-39,1)	(-8,1)	(-38,1)	(1,0)	(1,0)	(1,0)	(1,0)	(1,0)	(1,0)	
L2C 61>	(-60,3)	(1,1)	(-3,1)	(-15,1)	(-31,1)	(-6,1)	(-49,1)	(1,0)	(1,0)	(1,0)	(1,0)	(1,0)	(1,0)	(1,0)	(1,0)	(1,0)	
L2C 62>	(1,1)	(-58,1)	(-18,1)	(1,0)	(1,0)	(1,0)	(1,0)	(1,0)	(1,0)	(1,0)	(1,0)	(1,0)	(1,0)	(1,0)	(1,0)	(1,0)	
L2C 63>	(1,0)	(1,0)	(1,0)	(1,0)	(1,0)	(1,0)	(1,0)	(1,0)	(1,0)	(1,0)	(1,0)	(1,0)	(1,0)	(1,0)	(1,0)	(1,0)	

DRAM Statistics
 CHANNEL 0
 RQ ROW_BUFFER_HIT:     105801  ROW_BUFFER_MISS:     274945
 DBUS_CONGESTED:     243690
 WQ ROW_BUFFER_HIT:      13397  ROW_BUFFER_MISS:      76437  FULL:          0

 AVG_CONGESTED_CYCLE: 6
