
*** ChampSim Multicore Out-of-Order Simulator ***

Warmup Instructions: 1000000
Simulation Instructions: 10000000
Number of CPUs: 4
LLC sets: 8192
LLC ways: 16
Off-chip DRAM Size: 4096 MB Channels: 1 Width: 64-bit Data Rate: 3200 MT/s

CPU 0 runs /home/virtualcse/Data-Prefetching/ChampSim/dpc3_traces/623.xalancbmk_s-202B.champsimtrace.xz
CPU 1 runs /home/virtualcse/Data-Prefetching/ChampSim/dpc3_traces/625.x264_s-18B.champsimtrace.xz
CPU 2 runs /home/virtualcse/Data-Prefetching/ChampSim/dpc3_traces/600.perlbench_s-1273B.champsimtrace.xz
CPU 3 runs /home/virtualcse/Data-Prefetching/ChampSim/dpc3_traces/638.imagick_s-4128B.champsimtrace.xz
Ultra pref. initializing...
Ultra pref. initialized
Ultra pref. initializing...
Ultra pref. initialized
Ultra pref. initializing...
Ultra pref. initialized
Ultra pref. initializing...
Ultra pref. initialized
Ultra pref. initializing...
Ultra pref. initialized
Ultra pref. initializing...
Ultra pref. initialized
Ultra pref. initializing...
Ultra pref. initialized
Ultra pref. initializing...
Ultra pref. initialized

Warmup complete CPU 0 instructions: 1089604 cycles: 385982 (Simulation time: 0 hr 0 min 10 sec) 
Warmup complete CPU 1 instructions: 1144518 cycles: 385982 (Simulation time: 0 hr 0 min 10 sec) 
Warmup complete CPU 2 instructions: 1000002 cycles: 385982 (Simulation time: 0 hr 0 min 10 sec) 
Warmup complete CPU 3 instructions: 1072364 cycles: 385981 (Simulation time: 0 hr 0 min 10 sec) 

Heartbeat CPU 3 instructions: 10000001 cycles: 3889941 heartbeat IPC: 2.57073 cumulative IPC: 2.54787 (Simulation time: 0 hr 0 min 56 sec) 
Finished CPU 3 instructions: 10000001 cycles: 3926604 cumulative IPC: 2.54673 (Simulation time: 0 hr 1 min 2 sec) 
Heartbeat CPU 1 instructions: 10000000 cycles: 4449206 heartbeat IPC: 2.24759 cumulative IPC: 2.17942 (Simulation time: 0 hr 1 min 4 sec) 
Finished CPU 1 instructions: 10000000 cycles: 4583213 cumulative IPC: 2.18188 (Simulation time: 0 hr 1 min 12 sec) 
Heartbeat CPU 2 instructions: 10000000 cycles: 5746711 heartbeat IPC: 1.74013 cumulative IPC: 1.67888 (Simulation time: 0 hr 1 min 22 sec) 
Heartbeat CPU 0 instructions: 10000003 cycles: 5981382 heartbeat IPC: 1.67185 cumulative IPC: 1.59245 (Simulation time: 0 hr 1 min 26 sec) 
Finished CPU 2 instructions: 10000002 cycles: 5930041 cumulative IPC: 1.68633 (Simulation time: 0 hr 1 min 30 sec) 
Finished CPU 0 instructions: 10000002 cycles: 6241087 cumulative IPC: 1.60229 (Simulation time: 0 hr 1 min 35 sec) 

CPU 0 Branch Prediction Accuracy: 99.9815% MPKI: 0.0475737 Average ROB Occupancy at Mispredict: 122.442

CPU 1 Branch Prediction Accuracy: 97.6756% MPKI: 0.838998 Average ROB Occupancy at Mispredict: 245.331

CPU 2 Branch Prediction Accuracy: 98.1197% MPKI: 2.29717 Average ROB Occupancy at Mispredict: 120.833

CPU 3 Branch Prediction Accuracy: 99.5361% MPKI: 0.88451 Average ROB Occupancy at Mispredict: 341.064

ChampSim completed all CPUs

Total Simulation Statistics (not including warmup)

CPU 0 cumulative IPC: 1.60229 instructions: 10000002 cycles: 6241087
L1D TOTAL     ACCESS:    3046085  HIT:    2773959  MISS:     272126
L1D LOAD      ACCESS:    1433771  HIT:    1333970  MISS:      99801
L1D RFO       ACCESS:     177726  HIT:     177726  MISS:          0
L1D PREFETCH  ACCESS:    1434588  HIT:    1262263  MISS:     172325
L1D WRITEBACK ACCESS:          0  HIT:          0  MISS:          0
L1I TOTAL     ACCESS:     488631  HIT:     488626  MISS:          5
L1I LOAD      ACCESS:     488631  HIT:     488626  MISS:          5
L1I RFO       ACCESS:          0  HIT:          0  MISS:          0
L1I PREFETCH  ACCESS:          0  HIT:          0  MISS:          0
L1I WRITEBACK ACCESS:          0  HIT:          0  MISS:          0
L2C TOTAL     ACCESS:     617446  HIT:     344715  MISS:     272731
L2C LOAD      ACCESS:      76640  HIT:      62976  MISS:      13664
L2C RFO       ACCESS:          0  HIT:          0  MISS:          0
L2C PREFETCH  ACCESS:     540806  HIT:     281739  MISS:     259067
L2C WRITEBACK ACCESS:          0  HIT:          0  MISS:          0

L1D -512>	(0,96)	(12,54)	(2,39)	(5,4)	(-439,1)	(1,58)	(8,1)	(-88,3)	(-8,67)	(-1,16)	(3,4)	(88,47)	(-2,4)	(6,121)	(13,48)	(4,1)	
L1D -511>	(0,55)	(6,2)	(1,110)	(2,18)	(3,1)	(8,0)	(1,0)	(1,0)	(1,0)	(1,0)	(1,0)	(1,0)	(1,0)	(1,0)	(1,0)	(1,0)	
L1D -510>	(6,1)	(2,5)	(0,16)	(1,64)	(11,89)	(1,0)	(1,0)	(1,0)	(1,0)	(1,0)	(1,0)	(1,0)	(1,0)	(1,0)	(1,0)	(1,0)	
L1D -509>	(1,1)	(12,0)	(6,76)	(11,0)	(0,0)	(1,0)	(1,0)	(1,0)	(1,0)	(1,0)	(1,0)	(1,0)	(1,0)	(1,0)	(1,0)	(1,0)	
L1D -508>	(2,4)	(0,12)	(1,21)	(11,67)	(3,1)	(1,0)	(1,0)	(1,0)	(1,0)	(1,0)	(1,0)	(1,0)	(1,0)	(1,0)	(1,0)	(1,0)	
L1D -507>	(13,62)	(8,4)	(12,15)	(1,0)	(1,0)	(1,0)	(1,0)	(1,0)	(1,0)	(1,0)	(1,0)	(1,0)	(1,0)	(1,0)	(1,0)	(1,0)	
L1D -506>	(13,80)	(6,2)	(3,2)	(5,2)	(2,0)	(1,0)	(1,0)	(1,0)	(1,0)	(1,0)	(1,0)	(1,0)	(1,0)	(1,0)	(1,0)	(1,0)	
L1D -505>	(2,2)	(8,9)	(13,12)	(12,23)	(1,0)	(1,0)	(1,0)	(1,0)	(1,0)	(1,0)	(1,0)	(1,0)	(1,0)	(1,0)	(1,0)	(1,0)	
L1D -504>	(1,5)	(0,1)	(1,0)	(1,0)	(1,0)	(1,0)	(1,0)	(1,0)	(1,0)	(1,0)	(1,0)	(1,0)	(1,0)	(1,0)	(1,0)	(1,0)	
L1D -503>	(-8,18)	(6,112)	(0,5)	(2,22)	(1,10)	(1,0)	(1,0)	(1,0)	(1,0)	(1,0)	(1,0)	(1,0)	(1,0)	(1,0)	(1,0)	(1,0)	
L1D -502>	(1,0)	(1,0)	(1,0)	(1,0)	(1,0)	(1,0)	(1,0)	(1,0)	(1,0)	(1,0)	(1,0)	(1,0)	(1,0)	(1,0)	(1,0)	(1,0)	
L1D -501>	(-8,5)	(1,0)	(1,0)	(1,0)	(1,0)	(1,0)	(1,0)	(1,0)	(1,0)	(1,0)	(1,0)	(1,0)	(1,0)	(1,0)	(1,0)	(1,0)	
L1D -500>	(1,0)	(1,0)	(1,0)	(1,0)	(1,0)	(1,0)	(1,0)	(1,0)	(1,0)	(1,0)	(1,0)	(1,0)	(1,0)	(1,0)	(1,0)	(1,0)	
L1D -499>	(-8,18)	(6,6)	(13,96)	(2,12)	(5,2)	(1,0)	(1,0)	(1,0)	(1,0)	(1,0)	(1,0)	(1,0)	(1,0)	(1,0)	(1,0)	(1,0)	
L1D -498>	(6,8)	(-8,8)	(88,1)	(2,1)	(1,0)	(1,0)	(1,0)	(1,0)	(1,0)	(1,0)	(1,0)	(1,0)	(1,0)	(1,0)	(1,0)	(1,0)	
L1D -497>	(12,96)	(-8,62)	(1,0)	(0,0)	(1,0)	(1,0)	(1,0)	(1,0)	(1,0)	(1,0)	(1,0)	(1,0)	(1,0)	(1,0)	(1,0)	(1,0)	
L1D -496>	(0,1)	(1,1)	(1,0)	(1,0)	(1,0)	(1,0)	(1,0)	(1,0)	(1,0)	(1,0)	(1,0)	(1,0)	(1,0)	(1,0)	(1,0)	(1,0)	
L1D -495>	(1,0)	(1,0)	(1,0)	(1,0)	(1,0)	(1,0)	(1,0)	(1,0)	(1,0)	(1,0)	(1,0)	(1,0)	(1,0)	(1,0)	(1,0)	(1,0)	
L1D -494>	(6,1)	(1,0)	(1,0)	(1,0)	(1,0)	(1,0)	(1,0)	(1,0)	(1,0)	(1,0)	(1,0)	(1,0)	(1,0)	(1,0)	(1,0)	(1,0)	
L1D -493>	(6,26)	(1,0)	(1,0)	(1,0)	(1,0)	(1,0)	(1,0)	(1,0)	(1,0)	(1,0)	(1,0)	(1,0)	(1,0)	(1,0)	(1,0)	(1,0)	
L1D -492>	(13,3)	(1,0)	(1,0)	(1,0)	(1,0)	(1,0)	(1,0)	(1,0)	(1,0)	(1,0)	(1,0)	(1,0)	(1,0)	(1,0)	(1,0)	(1,0)	
L1D -491>	(1,0)	(1,0)	(1,0)	(1,0)	(1,0)	(1,0)	(1,0)	(1,0)	(1,0)	(1,0)	(1,0)	(1,0)	(1,0)	(1,0)	(1,0)	(1,0)	
L1D -490>	(1,0)	(1,0)	(1,0)	(1,0)	(1,0)	(1,0)	(1,0)	(1,0)	(1,0)	(1,0)	(1,0)	(1,0)	(1,0)	(1,0)	(1,0)	(1,0)	
L1D -489>	(13,6)	(1,0)	(1,0)	(1,0)	(1,0)	(1,0)	(1,0)	(1,0)	(1,0)	(1,0)	(1,0)	(1,0)	(1,0)	(1,0)	(1,0)	(1,0)	
L1D -488>	(0,1)	(12,1)	(1,0)	(1,0)	(1,0)	(1,0)	(1,0)	(1,0)	(1,0)	(1,0)	(1,0)	(1,0)	(1,0)	(1,0)	(1,0)	(1,0)	
L1D -487>	(13,1)	(1,3)	(1,0)	(1,0)	(1,0)	(1,0)	(1,0)	(1,0)	(1,0)	(1,0)	(1,0)	(1,0)	(1,0)	(1,0)	(1,0)	(1,0)	
L1D -486>	(1,1)	(2,5)	(1,0)	(1,0)	(1,0)	(1,0)	(1,0)	(1,0)	(1,0)	(1,0)	(1,0)	(1,0)	(1,0)	(1,0)	(1,0)	(1,0)	
L1D -485>	(13,2)	(1,0)	(1,0)	(1,0)	(1,0)	(1,0)	(1,0)	(1,0)	(1,0)	(1,0)	(1,0)	(1,0)	(1,0)	(1,0)	(1,0)	(1,0)	
L1D -484>	(0,1)	(1,0)	(1,0)	(1,0)	(1,0)	(1,0)	(1,0)	(1,0)	(1,0)	(1,0)	(1,0)	(1,0)	(1,0)	(1,0)	(1,0)	(1,0)	
L1D -483>	(1,6)	(1,0)	(1,0)	(1,0)	(1,0)	(1,0)	(1,0)	(1,0)	(1,0)	(1,0)	(1,0)	(1,0)	(1,0)	(1,0)	(1,0)	(1,0)	
L1D -482>	(6,5)	(1,0)	(1,0)	(1,0)	(1,0)	(1,0)	(1,0)	(1,0)	(1,0)	(1,0)	(1,0)	(1,0)	(1,0)	(1,0)	(1,0)	(1,0)	
L1D -481>	(1,0)	(1,0)	(1,0)	(1,0)	(1,0)	(1,0)	(1,0)	(1,0)	(1,0)	(1,0)	(1,0)	(1,0)	(1,0)	(1,0)	(1,0)	(1,0)	
L1D -480>	(1,0)	(1,0)	(1,0)	(1,0)	(1,0)	(1,0)	(1,0)	(1,0)	(1,0)	(1,0)	(1,0)	(1,0)	(1,0)	(1,0)	(1,0)	(1,0)	
L1D -479>	(1,0)	(1,0)	(1,0)	(1,0)	(1,0)	(1,0)	(1,0)	(1,0)	(1,0)	(1,0)	(1,0)	(1,0)	(1,0)	(1,0)	(1,0)	(1,0)	
L1D -478>	(1,0)	(1,0)	(1,0)	(1,0)	(1,0)	(1,0)	(1,0)	(1,0)	(1,0)	(1,0)	(1,0)	(1,0)	(1,0)	(1,0)	(1,0)	(1,0)	
L1D -477>	(1,0)	(1,0)	(1,0)	(1,0)	(1,0)	(1,0)	(1,0)	(1,0)	(1,0)	(1,0)	(1,0)	(1,0)	(1,0)	(1,0)	(1,0)	(1,0)	
L1D -476>	(1,0)	(1,0)	(1,0)	(1,0)	(1,0)	(1,0)	(1,0)	(1,0)	(1,0)	(1,0)	(1,0)	(1,0)	(1,0)	(1,0)	(1,0)	(1,0)	
L1D -475>	(0,1)	(1,0)	(1,0)	(1,0)	(1,0)	(1,0)	(1,0)	(1,0)	(1,0)	(1,0)	(1,0)	(1,0)	(1,0)	(1,0)	(1,0)	(1,0)	
L1D -474>	(1,0)	(1,0)	(1,0)	(1,0)	(1,0)	(1,0)	(1,0)	(1,0)	(1,0)	(1,0)	(1,0)	(1,0)	(1,0)	(1,0)	(1,0)	(1,0)	
L1D -473>	(-1,1)	(1,0)	(1,0)	(1,0)	(1,0)	(1,0)	(1,0)	(1,0)	(1,0)	(1,0)	(1,0)	(1,0)	(1,0)	(1,0)	(1,0)	(1,0)	
L1D -472>	(0,1)	(1,0)	(1,0)	(1,0)	(1,0)	(1,0)	(1,0)	(1,0)	(1,0)	(1,0)	(1,0)	(1,0)	(1,0)	(1,0)	(1,0)	(1,0)	
L1D -471>	(1,0)	(1,0)	(1,0)	(1,0)	(1,0)	(1,0)	(1,0)	(1,0)	(1,0)	(1,0)	(1,0)	(1,0)	(1,0)	(1,0)	(1,0)	(1,0)	
L1D -470>	(1,0)	(1,0)	(1,0)	(1,0)	(1,0)	(1,0)	(1,0)	(1,0)	(1,0)	(1,0)	(1,0)	(1,0)	(1,0)	(1,0)	(1,0)	(1,0)	
L1D -469>	(1,0)	(1,0)	(1,0)	(1,0)	(1,0)	(1,0)	(1,0)	(1,0)	(1,0)	(1,0)	(1,0)	(1,0)	(1,0)	(1,0)	(1,0)	(1,0)	
L1D -468>	(1,0)	(1,0)	(1,0)	(1,0)	(1,0)	(1,0)	(1,0)	(1,0)	(1,0)	(1,0)	(1,0)	(1,0)	(1,0)	(1,0)	(1,0)	(1,0)	
L1D -467>	(1,0)	(1,0)	(1,0)	(1,0)	(1,0)	(1,0)	(1,0)	(1,0)	(1,0)	(1,0)	(1,0)	(1,0)	(1,0)	(1,0)	(1,0)	(1,0)	
L1D -466>	(1,0)	(1,0)	(1,0)	(1,0)	(1,0)	(1,0)	(1,0)	(1,0)	(1,0)	(1,0)	(1,0)	(1,0)	(1,0)	(1,0)	(1,0)	(1,0)	
L1D -465>	(1,0)	(1,0)	(1,0)	(1,0)	(1,0)	(1,0)	(1,0)	(1,0)	(1,0)	(1,0)	(1,0)	(1,0)	(1,0)	(1,0)	(1,0)	(1,0)	
L1D -464>	(1,0)	(1,0)	(1,0)	(1,0)	(1,0)	(1,0)	(1,0)	(1,0)	(1,0)	(1,0)	(1,0)	(1,0)	(1,0)	(1,0)	(1,0)	(1,0)	
L1D -463>	(1,0)	(1,0)	(1,0)	(1,0)	(1,0)	(1,0)	(1,0)	(1,0)	(1,0)	(1,0)	(1,0)	(1,0)	(1,0)	(1,0)	(1,0)	(1,0)	
L1D -462>	(1,0)	(1,0)	(1,0)	(1,0)	(1,0)	(1,0)	(1,0)	(1,0)	(1,0)	(1,0)	(1,0)	(1,0)	(1,0)	(1,0)	(1,0)	(1,0)	
L1D -461>	(1,0)	(1,0)	(1,0)	(1,0)	(1,0)	(1,0)	(1,0)	(1,0)	(1,0)	(1,0)	(1,0)	(1,0)	(1,0)	(1,0)	(1,0)	(1,0)	
L1D -460>	(1,0)	(1,0)	(1,0)	(1,0)	(1,0)	(1,0)	(1,0)	(1,0)	(1,0)	(1,0)	(1,0)	(1,0)	(1,0)	(1,0)	(1,0)	(1,0)	
L1D -459>	(1,0)	(1,0)	(1,0)	(1,0)	(1,0)	(1,0)	(1,0)	(1,0)	(1,0)	(1,0)	(1,0)	(1,0)	(1,0)	(1,0)	(1,0)	(1,0)	
L1D -458>	(1,0)	(1,0)	(1,0)	(1,0)	(1,0)	(1,0)	(1,0)	(1,0)	(1,0)	(1,0)	(1,0)	(1,0)	(1,0)	(1,0)	(1,0)	(1,0)	
L1D -457>	(1,0)	(1,0)	(1,0)	(1,0)	(1,0)	(1,0)	(1,0)	(1,0)	(1,0)	(1,0)	(1,0)	(1,0)	(1,0)	(1,0)	(1,0)	(1,0)	
L1D -456>	(1,1)	(1,0)	(1,0)	(1,0)	(1,0)	(1,0)	(1,0)	(1,0)	(1,0)	(1,0)	(1,0)	(1,0)	(1,0)	(1,0)	(1,0)	(1,0)	
L1D -455>	(1,0)	(1,0)	(1,0)	(1,0)	(1,0)	(1,0)	(1,0)	(1,0)	(1,0)	(1,0)	(1,0)	(1,0)	(1,0)	(1,0)	(1,0)	(1,0)	
L1D -454>	(0,2)	(1,0)	(1,0)	(1,0)	(1,0)	(1,0)	(1,0)	(1,0)	(1,0)	(1,0)	(1,0)	(1,0)	(1,0)	(1,0)	(1,0)	(1,0)	
L1D -453>	(0,1)	(1,0)	(1,0)	(1,0)	(1,0)	(1,0)	(1,0)	(1,0)	(1,0)	(1,0)	(1,0)	(1,0)	(1,0)	(1,0)	(1,0)	(1,0)	
L1D -452>	(0,1)	(1,0)	(1,0)	(1,0)	(1,0)	(1,0)	(1,0)	(1,0)	(1,0)	(1,0)	(1,0)	(1,0)	(1,0)	(1,0)	(1,0)	(1,0)	
L1D -451>	(1,1)	(0,1)	(1,0)	(1,0)	(1,0)	(1,0)	(1,0)	(1,0)	(1,0)	(1,0)	(1,0)	(1,0)	(1,0)	(1,0)	(1,0)	(1,0)	
L1D -450>	(1,0)	(1,0)	(1,0)	(1,0)	(1,0)	(1,0)	(1,0)	(1,0)	(1,0)	(1,0)	(1,0)	(1,0)	(1,0)	(1,0)	(1,0)	(1,0)	
L1D -449>	(88,14)	(0,19)	(1,2)	(176,2)	(-1,1)	(352,1)	(1,0)	(1,0)	(1,0)	(1,0)	(1,0)	(1,0)	(1,0)	(1,0)	(1,0)	(1,0)	
L1D -448>	(1,0)	(1,0)	(1,0)	(1,0)	(1,0)	(1,0)	(1,0)	(1,0)	(1,0)	(1,0)	(1,0)	(1,0)	(1,0)	(1,0)	(1,0)	(1,0)	
L1D -447>	(1,0)	(1,0)	(1,0)	(1,0)	(1,0)	(1,0)	(1,0)	(1,0)	(1,0)	(1,0)	(1,0)	(1,0)	(1,0)	(1,0)	(1,0)	(1,0)	
L1D -446>	(1,2)	(449,1)	(1,0)	(1,0)	(1,0)	(1,0)	(1,0)	(1,0)	(1,0)	(1,0)	(1,0)	(1,0)	(1,0)	(1,0)	(1,0)	(1,0)	
L1D -445>	(88,2)	(1,0)	(1,0)	(1,0)	(1,0)	(1,0)	(1,0)	(1,0)	(1,0)	(1,0)	(1,0)	(1,0)	(1,0)	(1,0)	(1,0)	(1,0)	
L1D -444>	(0,2)	(1,5)	(88,3)	(2,1)	(1,0)	(1,0)	(1,0)	(1,0)	(1,0)	(1,0)	(1,0)	(1,0)	(1,0)	(1,0)	(1,0)	(1,0)	
L1D -443>	(0,7)	(1,19)	(88,2)	(1,0)	(1,0)	(1,0)	(1,0)	(1,0)	(1,0)	(1,0)	(1,0)	(1,0)	(1,0)	(1,0)	(1,0)	(1,0)	
L1D -442>	(1,96)	(0,48)	(88,33)	(1,0)	(1,0)	(1,0)	(1,0)	(1,0)	(1,0)	(1,0)	(1,0)	(1,0)	(1,0)	(1,0)	(1,0)	(1,0)	
L1D -441>	(1,29)	(0,49)	(88,78)	(-1,2)	(352,1)	(440,0)	(1,0)	(1,0)	(1,0)	(1,0)	(1,0)	(1,0)	(1,0)	(1,0)	(1,0)	(1,0)	
L1D -440>	(0,117)	(1,6)	(-3,0)	(88,84)	(-1,4)	(1,0)	(1,0)	(1,0)	(1,0)	(1,0)	(1,0)	(1,0)	(1,0)	(1,0)	(1,0)	(1,0)	
L1D -439>	(0,98)	(1,3)	(87,1)	(88,41)	(-1,7)	(1,0)	(1,0)	(1,0)	(1,0)	(1,0)	(1,0)	(1,0)	(1,0)	(1,0)	(1,0)	(1,0)	
L1D -438>	(87,1)	(0,2)	(88,1)	(1,0)	(1,0)	(1,0)	(1,0)	(1,0)	(1,0)	(1,0)	(1,0)	(1,0)	(1,0)	(1,0)	(1,0)	(1,0)	
L1D -437>	(88,1)	(1,0)	(1,0)	(1,0)	(1,0)	(1,0)	(1,0)	(1,0)	(1,0)	(1,0)	(1,0)	(1,0)	(1,0)	(1,0)	(1,0)	(1,0)	
L1D -436>	(1,0)	(1,0)	(1,0)	(1,0)	(1,0)	(1,0)	(1,0)	(1,0)	(1,0)	(1,0)	(1,0)	(1,0)	(1,0)	(1,0)	(1,0)	(1,0)	
L1D -435>	(1,0)	(1,0)	(1,0)	(1,0)	(1,0)	(1,0)	(1,0)	(1,0)	(1,0)	(1,0)	(1,0)	(1,0)	(1,0)	(1,0)	(1,0)	(1,0)	
L1D -434>	(0,2)	(1,0)	(1,0)	(1,0)	(1,0)	(1,0)	(1,0)	(1,0)	(1,0)	(1,0)	(1,0)	(1,0)	(1,0)	(1,0)	(1,0)	(1,0)	
L1D -433>	(0,1)	(88,1)	(1,0)	(1,0)	(1,0)	(1,0)	(1,0)	(1,0)	(1,0)	(1,0)	(1,0)	(1,0)	(1,0)	(1,0)	(1,0)	(1,0)	
L1D -432>	(88,1)	(1,1)	(0,1)	(1,0)	(1,0)	(1,0)	(1,0)	(1,0)	(1,0)	(1,0)	(1,0)	(1,0)	(1,0)	(1,0)	(1,0)	(1,0)	
L1D -431>	(88,3)	(1,0)	(1,0)	(1,0)	(1,0)	(1,0)	(1,0)	(1,0)	(1,0)	(1,0)	(1,0)	(1,0)	(1,0)	(1,0)	(1,0)	(1,0)	
L1D -430>	(88,2)	(0,1)	(1,0)	(1,0)	(1,0)	(1,0)	(1,0)	(1,0)	(1,0)	(1,0)	(1,0)	(1,0)	(1,0)	(1,0)	(1,0)	(1,0)	
L1D -429>	(1,1)	(1,0)	(1,0)	(1,0)	(1,0)	(1,0)	(1,0)	(1,0)	(1,0)	(1,0)	(1,0)	(1,0)	(1,0)	(1,0)	(1,0)	(1,0)	
L1D -428>	(88,1)	(0,1)	(1,0)	(1,0)	(1,0)	(1,0)	(1,0)	(1,0)	(1,0)	(1,0)	(1,0)	(1,0)	(1,0)	(1,0)	(1,0)	(1,0)	
L1D -427>	(88,1)	(1,1)	(1,0)	(1,0)	(1,0)	(1,0)	(1,0)	(1,0)	(1,0)	(1,0)	(1,0)	(1,0)	(1,0)	(1,0)	(1,0)	(1,0)	
L1D -426>	(88,1)	(1,1)	(-2,1)	(0,1)	(1,0)	(1,0)	(1,0)	(1,0)	(1,0)	(1,0)	(1,0)	(1,0)	(1,0)	(1,0)	(1,0)	(1,0)	
L1D -425>	(0,2)	(1,2)	(1,0)	(1,0)	(1,0)	(1,0)	(1,0)	(1,0)	(1,0)	(1,0)	(1,0)	(1,0)	(1,0)	(1,0)	(1,0)	(1,0)	
L1D -424>	(1,0)	(1,0)	(1,0)	(1,0)	(1,0)	(1,0)	(1,0)	(1,0)	(1,0)	(1,0)	(1,0)	(1,0)	(1,0)	(1,0)	(1,0)	(1,0)	
L1D -423>	(0,1)	(12,1)	(1,0)	(1,0)	(1,0)	(1,0)	(1,0)	(1,0)	(1,0)	(1,0)	(1,0)	(1,0)	(1,0)	(1,0)	(1,0)	(1,0)	
L1D -422>	(1,0)	(1,0)	(1,0)	(1,0)	(1,0)	(1,0)	(1,0)	(1,0)	(1,0)	(1,0)	(1,0)	(1,0)	(1,0)	(1,0)	(1,0)	(1,0)	
L1D -421>	(1,0)	(1,0)	(1,0)	(1,0)	(1,0)	(1,0)	(1,0)	(1,0)	(1,0)	(1,0)	(1,0)	(1,0)	(1,0)	(1,0)	(1,0)	(1,0)	
L1D -420>	(1,0)	(1,0)	(1,0)	(1,0)	(1,0)	(1,0)	(1,0)	(1,0)	(1,0)	(1,0)	(1,0)	(1,0)	(1,0)	(1,0)	(1,0)	(1,0)	
L1D -419>	(1,0)	(1,0)	(1,0)	(1,0)	(1,0)	(1,0)	(1,0)	(1,0)	(1,0)	(1,0)	(1,0)	(1,0)	(1,0)	(1,0)	(1,0)	(1,0)	
L1D -418>	(-1,1)	(1,0)	(1,0)	(1,0)	(1,0)	(1,0)	(1,0)	(1,0)	(1,0)	(1,0)	(1,0)	(1,0)	(1,0)	(1,0)	(1,0)	(1,0)	
L1D -417>	(1,0)	(1,0)	(1,0)	(1,0)	(1,0)	(1,0)	(1,0)	(1,0)	(1,0)	(1,0)	(1,0)	(1,0)	(1,0)	(1,0)	(1,0)	(1,0)	
L1D -416>	(1,1)	(1,0)	(1,0)	(1,0)	(1,0)	(1,0)	(1,0)	(1,0)	(1,0)	(1,0)	(1,0)	(1,0)	(1,0)	(1,0)	(1,0)	(1,0)	
L1D -415>	(88,1)	(-1,1)	(1,0)	(1,0)	(1,0)	(1,0)	(1,0)	(1,0)	(1,0)	(1,0)	(1,0)	(1,0)	(1,0)	(1,0)	(1,0)	(1,0)	
L1D -414>	(0,1)	(1,1)	(1,0)	(1,0)	(1,0)	(1,0)	(1,0)	(1,0)	(1,0)	(1,0)	(1,0)	(1,0)	(1,0)	(1,0)	(1,0)	(1,0)	
L1D -413>	(0,1)	(1,0)	(1,0)	(1,0)	(1,0)	(1,0)	(1,0)	(1,0)	(1,0)	(1,0)	(1,0)	(1,0)	(1,0)	(1,0)	(1,0)	(1,0)	
L1D -412>	(1,1)	(0,1)	(1,0)	(1,0)	(1,0)	(1,0)	(1,0)	(1,0)	(1,0)	(1,0)	(1,0)	(1,0)	(1,0)	(1,0)	(1,0)	(1,0)	
L1D -411>	(0,1)	(1,0)	(1,0)	(1,0)	(1,0)	(1,0)	(1,0)	(1,0)	(1,0)	(1,0)	(1,0)	(1,0)	(1,0)	(1,0)	(1,0)	(1,0)	
L1D -410>	(0,1)	(88,1)	(1,0)	(1,0)	(1,0)	(1,0)	(1,0)	(1,0)	(1,0)	(1,0)	(1,0)	(1,0)	(1,0)	(1,0)	(1,0)	(1,0)	
L1D -409>	(0,1)	(1,0)	(1,0)	(1,0)	(1,0)	(1,0)	(1,0)	(1,0)	(1,0)	(1,0)	(1,0)	(1,0)	(1,0)	(1,0)	(1,0)	(1,0)	
L1D -408>	(88,2)	(0,1)	(1,0)	(1,0)	(1,0)	(1,0)	(1,0)	(1,0)	(1,0)	(1,0)	(1,0)	(1,0)	(1,0)	(1,0)	(1,0)	(1,0)	
L1D -407>	(1,0)	(1,0)	(1,0)	(1,0)	(1,0)	(1,0)	(1,0)	(1,0)	(1,0)	(1,0)	(1,0)	(1,0)	(1,0)	(1,0)	(1,0)	(1,0)	
L1D -406>	(1,0)	(1,0)	(1,0)	(1,0)	(1,0)	(1,0)	(1,0)	(1,0)	(1,0)	(1,0)	(1,0)	(1,0)	(1,0)	(1,0)	(1,0)	(1,0)	
L1D -405>	(1,0)	(1,0)	(1,0)	(1,0)	(1,0)	(1,0)	(1,0)	(1,0)	(1,0)	(1,0)	(1,0)	(1,0)	(1,0)	(1,0)	(1,0)	(1,0)	
L1D -404>	(1,0)	(1,0)	(1,0)	(1,0)	(1,0)	(1,0)	(1,0)	(1,0)	(1,0)	(1,0)	(1,0)	(1,0)	(1,0)	(1,0)	(1,0)	(1,0)	
L1D -403>	(88,3)	(1,0)	(1,0)	(1,0)	(1,0)	(1,0)	(1,0)	(1,0)	(1,0)	(1,0)	(1,0)	(1,0)	(1,0)	(1,0)	(1,0)	(1,0)	
L1D -402>	(88,2)	(0,2)	(1,0)	(1,0)	(1,0)	(1,0)	(1,0)	(1,0)	(1,0)	(1,0)	(1,0)	(1,0)	(1,0)	(1,0)	(1,0)	(1,0)	
L1D -401>	(88,2)	(0,1)	(1,0)	(1,0)	(1,0)	(1,0)	(1,0)	(1,0)	(1,0)	(1,0)	(1,0)	(1,0)	(1,0)	(1,0)	(1,0)	(1,0)	
L1D -400>	(0,47)	(1,106)	(2,21)	(1,0)	(1,0)	(1,0)	(1,0)	(1,0)	(1,0)	(1,0)	(1,0)	(1,0)	(1,0)	(1,0)	(1,0)	(1,0)	
L1D -399>	(1,1)	(1,0)	(1,0)	(1,0)	(1,0)	(1,0)	(1,0)	(1,0)	(1,0)	(1,0)	(1,0)	(1,0)	(1,0)	(1,0)	(1,0)	(1,0)	
L1D -398>	(1,0)	(1,0)	(1,0)	(1,0)	(1,0)	(1,0)	(1,0)	(1,0)	(1,0)	(1,0)	(1,0)	(1,0)	(1,0)	(1,0)	(1,0)	(1,0)	
L1D -397>	(1,0)	(1,0)	(1,0)	(1,0)	(1,0)	(1,0)	(1,0)	(1,0)	(1,0)	(1,0)	(1,0)	(1,0)	(1,0)	(1,0)	(1,0)	(1,0)	
L1D -396>	(0,1)	(88,2)	(1,0)	(1,0)	(1,0)	(1,0)	(1,0)	(1,0)	(1,0)	(1,0)	(1,0)	(1,0)	(1,0)	(1,0)	(1,0)	(1,0)	
L1D -395>	(1,0)	(1,0)	(1,0)	(1,0)	(1,0)	(1,0)	(1,0)	(1,0)	(1,0)	(1,0)	(1,0)	(1,0)	(1,0)	(1,0)	(1,0)	(1,0)	
L1D -394>	(1,0)	(1,0)	(1,0)	(1,0)	(1,0)	(1,0)	(1,0)	(1,0)	(1,0)	(1,0)	(1,0)	(1,0)	(1,0)	(1,0)	(1,0)	(1,0)	
L1D -393>	(1,0)	(1,0)	(1,0)	(1,0)	(1,0)	(1,0)	(1,0)	(1,0)	(1,0)	(1,0)	(1,0)	(1,0)	(1,0)	(1,0)	(1,0)	(1,0)	
L1D -392>	(1,0)	(1,0)	(1,0)	(1,0)	(1,0)	(1,0)	(1,0)	(1,0)	(1,0)	(1,0)	(1,0)	(1,0)	(1,0)	(1,0)	(1,0)	(1,0)	
L1D -391>	(1,0)	(1,0)	(1,0)	(1,0)	(1,0)	(1,0)	(1,0)	(1,0)	(1,0)	(1,0)	(1,0)	(1,0)	(1,0)	(1,0)	(1,0)	(1,0)	
L1D -390>	(1,0)	(1,0)	(1,0)	(1,0)	(1,0)	(1,0)	(1,0)	(1,0)	(1,0)	(1,0)	(1,0)	(1,0)	(1,0)	(1,0)	(1,0)	(1,0)	
L1D -389>	(88,1)	(0,1)	(1,0)	(1,0)	(1,0)	(1,0)	(1,0)	(1,0)	(1,0)	(1,0)	(1,0)	(1,0)	(1,0)	(1,0)	(1,0)	(1,0)	
L1D -388>	(1,0)	(1,0)	(1,0)	(1,0)	(1,0)	(1,0)	(1,0)	(1,0)	(1,0)	(1,0)	(1,0)	(1,0)	(1,0)	(1,0)	(1,0)	(1,0)	
L1D -387>	(1,0)	(1,0)	(1,0)	(1,0)	(1,0)	(1,0)	(1,0)	(1,0)	(1,0)	(1,0)	(1,0)	(1,0)	(1,0)	(1,0)	(1,0)	(1,0)	
L1D -386>	(1,1)	(1,0)	(1,0)	(1,0)	(1,0)	(1,0)	(1,0)	(1,0)	(1,0)	(1,0)	(1,0)	(1,0)	(1,0)	(1,0)	(1,0)	(1,0)	
L1D -385>	(-2,1)	(0,1)	(1,0)	(1,0)	(1,0)	(1,0)	(1,0)	(1,0)	(1,0)	(1,0)	(1,0)	(1,0)	(1,0)	(1,0)	(1,0)	(1,0)	
L1D -384>	(1,0)	(1,0)	(1,0)	(1,0)	(1,0)	(1,0)	(1,0)	(1,0)	(1,0)	(1,0)	(1,0)	(1,0)	(1,0)	(1,0)	(1,0)	(1,0)	
L1D -383>	(1,0)	(1,0)	(1,0)	(1,0)	(1,0)	(1,0)	(1,0)	(1,0)	(1,0)	(1,0)	(1,0)	(1,0)	(1,0)	(1,0)	(1,0)	(1,0)	
L1D -382>	(1,0)	(1,0)	(1,0)	(1,0)	(1,0)	(1,0)	(1,0)	(1,0)	(1,0)	(1,0)	(1,0)	(1,0)	(1,0)	(1,0)	(1,0)	(1,0)	
L1D -381>	(1,0)	(1,0)	(1,0)	(1,0)	(1,0)	(1,0)	(1,0)	(1,0)	(1,0)	(1,0)	(1,0)	(1,0)	(1,0)	(1,0)	(1,0)	(1,0)	
L1D -380>	(1,0)	(1,0)	(1,0)	(1,0)	(1,0)	(1,0)	(1,0)	(1,0)	(1,0)	(1,0)	(1,0)	(1,0)	(1,0)	(1,0)	(1,0)	(1,0)	
L1D -379>	(1,0)	(1,0)	(1,0)	(1,0)	(1,0)	(1,0)	(1,0)	(1,0)	(1,0)	(1,0)	(1,0)	(1,0)	(1,0)	(1,0)	(1,0)	(1,0)	
L1D -378>	(1,0)	(1,0)	(1,0)	(1,0)	(1,0)	(1,0)	(1,0)	(1,0)	(1,0)	(1,0)	(1,0)	(1,0)	(1,0)	(1,0)	(1,0)	(1,0)	
L1D -377>	(1,0)	(1,0)	(1,0)	(1,0)	(1,0)	(1,0)	(1,0)	(1,0)	(1,0)	(1,0)	(1,0)	(1,0)	(1,0)	(1,0)	(1,0)	(1,0)	
L1D -376>	(0,93)	(1,119)	(2,21)	(3,7)	(1,0)	(1,0)	(1,0)	(1,0)	(1,0)	(1,0)	(1,0)	(1,0)	(1,0)	(1,0)	(1,0)	(1,0)	
L1D -375>	(0,4)	(2,2)	(1,0)	(1,0)	(1,0)	(1,0)	(1,0)	(1,0)	(1,0)	(1,0)	(1,0)	(1,0)	(1,0)	(1,0)	(1,0)	(1,0)	
L1D -374>	(1,0)	(1,0)	(1,0)	(1,0)	(1,0)	(1,0)	(1,0)	(1,0)	(1,0)	(1,0)	(1,0)	(1,0)	(1,0)	(1,0)	(1,0)	(1,0)	
L1D -373>	(1,0)	(1,0)	(1,0)	(1,0)	(1,0)	(1,0)	(1,0)	(1,0)	(1,0)	(1,0)	(1,0)	(1,0)	(1,0)	(1,0)	(1,0)	(1,0)	
L1D -372>	(1,0)	(1,0)	(1,0)	(1,0)	(1,0)	(1,0)	(1,0)	(1,0)	(1,0)	(1,0)	(1,0)	(1,0)	(1,0)	(1,0)	(1,0)	(1,0)	
L1D -371>	(1,0)	(1,0)	(1,0)	(1,0)	(1,0)	(1,0)	(1,0)	(1,0)	(1,0)	(1,0)	(1,0)	(1,0)	(1,0)	(1,0)	(1,0)	(1,0)	
L1D -370>	(1,0)	(1,0)	(1,0)	(1,0)	(1,0)	(1,0)	(1,0)	(1,0)	(1,0)	(1,0)	(1,0)	(1,0)	(1,0)	(1,0)	(1,0)	(1,0)	
L1D -369>	(1,0)	(1,0)	(1,0)	(1,0)	(1,0)	(1,0)	(1,0)	(1,0)	(1,0)	(1,0)	(1,0)	(1,0)	(1,0)	(1,0)	(1,0)	(1,0)	
L1D -368>	(1,0)	(1,0)	(1,0)	(1,0)	(1,0)	(1,0)	(1,0)	(1,0)	(1,0)	(1,0)	(1,0)	(1,0)	(1,0)	(1,0)	(1,0)	(1,0)	
L1D -367>	(1,1)	(1,0)	(1,0)	(1,0)	(1,0)	(1,0)	(1,0)	(1,0)	(1,0)	(1,0)	(1,0)	(1,0)	(1,0)	(1,0)	(1,0)	(1,0)	
L1D -366>	(88,1)	(1,0)	(1,0)	(1,0)	(1,0)	(1,0)	(1,0)	(1,0)	(1,0)	(1,0)	(1,0)	(1,0)	(1,0)	(1,0)	(1,0)	(1,0)	
L1D -365>	(1,0)	(1,0)	(1,0)	(1,0)	(1,0)	(1,0)	(1,0)	(1,0)	(1,0)	(1,0)	(1,0)	(1,0)	(1,0)	(1,0)	(1,0)	(1,0)	
L1D -364>	(1,0)	(1,0)	(1,0)	(1,0)	(1,0)	(1,0)	(1,0)	(1,0)	(1,0)	(1,0)	(1,0)	(1,0)	(1,0)	(1,0)	(1,0)	(1,0)	
L1D -363>	(1,1)	(1,0)	(1,0)	(1,0)	(1,0)	(1,0)	(1,0)	(1,0)	(1,0)	(1,0)	(1,0)	(1,0)	(1,0)	(1,0)	(1,0)	(1,0)	
L1D -362>	(0,1)	(1,0)	(1,0)	(1,0)	(1,0)	(1,0)	(1,0)	(1,0)	(1,0)	(1,0)	(1,0)	(1,0)	(1,0)	(1,0)	(1,0)	(1,0)	
L1D -361>	(0,10)	(88,3)	(-1,2)	(1,0)	(1,0)	(1,0)	(1,0)	(1,0)	(1,0)	(1,0)	(1,0)	(1,0)	(1,0)	(1,0)	(1,0)	(1,0)	
L1D -360>	(6,6)	(88,1)	(1,1)	(1,0)	(1,0)	(1,0)	(1,0)	(1,0)	(1,0)	(1,0)	(1,0)	(1,0)	(1,0)	(1,0)	(1,0)	(1,0)	
L1D -359>	(0,1)	(1,1)	(1,0)	(1,0)	(1,0)	(1,0)	(1,0)	(1,0)	(1,0)	(1,0)	(1,0)	(1,0)	(1,0)	(1,0)	(1,0)	(1,0)	
L1D -358>	(1,1)	(1,0)	(1,0)	(1,0)	(1,0)	(1,0)	(1,0)	(1,0)	(1,0)	(1,0)	(1,0)	(1,0)	(1,0)	(1,0)	(1,0)	(1,0)	
L1D -357>	(1,1)	(1,0)	(1,0)	(1,0)	(1,0)	(1,0)	(1,0)	(1,0)	(1,0)	(1,0)	(1,0)	(1,0)	(1,0)	(1,0)	(1,0)	(1,0)	
L1D -356>	(0,2)	(1,3)	(88,2)	(1,0)	(1,0)	(1,0)	(1,0)	(1,0)	(1,0)	(1,0)	(1,0)	(1,0)	(1,0)	(1,0)	(1,0)	(1,0)	
L1D -355>	(1,15)	(0,11)	(88,8)	(1,0)	(1,0)	(1,0)	(1,0)	(1,0)	(1,0)	(1,0)	(1,0)	(1,0)	(1,0)	(1,0)	(1,0)	(1,0)	
L1D -354>	(1,89)	(0,41)	(88,45)	(2,2)	(1,0)	(1,0)	(1,0)	(1,0)	(1,0)	(1,0)	(1,0)	(1,0)	(1,0)	(1,0)	(1,0)	(1,0)	
L1D -353>	(0,96)	(1,57)	(88,118)	(-1,3)	(176,0)	(264,2)	(1,0)	(1,0)	(1,0)	(1,0)	(1,0)	(1,0)	(1,0)	(1,0)	(1,0)	(1,0)	
L1D -352>	(0,100)	(1,5)	(88,82)	(-1,4)	(-2,0)	(1,0)	(1,0)	(1,0)	(1,0)	(1,0)	(1,0)	(1,0)	(1,0)	(1,0)	(1,0)	(1,0)	
L1D -351>	(0,63)	(1,9)	(88,106)	(87,1)	(-1,13)	(1,0)	(1,0)	(1,0)	(1,0)	(1,0)	(1,0)	(1,0)	(1,0)	(1,0)	(1,0)	(1,0)	
L1D -350>	(322,88)	(0,0)	(1,0)	(1,0)	(1,0)	(1,0)	(1,0)	(1,0)	(1,0)	(1,0)	(1,0)	(1,0)	(1,0)	(1,0)	(1,0)	(1,0)	
L1D -349>	(1,0)	(1,0)	(1,0)	(1,0)	(1,0)	(1,0)	(1,0)	(1,0)	(1,0)	(1,0)	(1,0)	(1,0)	(1,0)	(1,0)	(1,0)	(1,0)	
L1D -348>	(-8,5)	(1,0)	(1,0)	(1,0)	(1,0)	(1,0)	(1,0)	(1,0)	(1,0)	(1,0)	(1,0)	(1,0)	(1,0)	(1,0)	(1,0)	(1,0)	
L1D -347>	(319,15)	(1,0)	(1,0)	(1,0)	(1,0)	(1,0)	(1,0)	(1,0)	(1,0)	(1,0)	(1,0)	(1,0)	(1,0)	(1,0)	(1,0)	(1,0)	
L1D -346>	(1,0)	(1,0)	(1,0)	(1,0)	(1,0)	(1,0)	(1,0)	(1,0)	(1,0)	(1,0)	(1,0)	(1,0)	(1,0)	(1,0)	(1,0)	(1,0)	
L1D -345>	(3,4)	(88,1)	(1,0)	(1,0)	(1,0)	(1,0)	(1,0)	(1,0)	(1,0)	(1,0)	(1,0)	(1,0)	(1,0)	(1,0)	(1,0)	(1,0)	
L1D -344>	(88,1)	(1,0)	(1,0)	(1,0)	(1,0)	(1,0)	(1,0)	(1,0)	(1,0)	(1,0)	(1,0)	(1,0)	(1,0)	(1,0)	(1,0)	(1,0)	
L1D -343>	(0,1)	(1,1)	(1,0)	(1,0)	(1,0)	(1,0)	(1,0)	(1,0)	(1,0)	(1,0)	(1,0)	(1,0)	(1,0)	(1,0)	(1,0)	(1,0)	
L1D -342>	(1,0)	(1,0)	(1,0)	(1,0)	(1,0)	(1,0)	(1,0)	(1,0)	(1,0)	(1,0)	(1,0)	(1,0)	(1,0)	(1,0)	(1,0)	(1,0)	
L1D -341>	(340,110)	(3,1)	(1,0)	(1,0)	(1,0)	(1,0)	(1,0)	(1,0)	(1,0)	(1,0)	(1,0)	(1,0)	(1,0)	(1,0)	(1,0)	(1,0)	
L1D -340>	(-99,95)	(2,0)	(1,0)	(1,0)	(1,0)	(1,0)	(1,0)	(1,0)	(1,0)	(1,0)	(1,0)	(1,0)	(1,0)	(1,0)	(1,0)	(1,0)	
L1D -339>	(1,0)	(1,0)	(1,0)	(1,0)	(1,0)	(1,0)	(1,0)	(1,0)	(1,0)	(1,0)	(1,0)	(1,0)	(1,0)	(1,0)	(1,0)	(1,0)	
L1D -338>	(1,0)	(1,0)	(1,0)	(1,0)	(1,0)	(1,0)	(1,0)	(1,0)	(1,0)	(1,0)	(1,0)	(1,0)	(1,0)	(1,0)	(1,0)	(1,0)	
L1D -337>	(1,0)	(1,0)	(1,0)	(1,0)	(1,0)	(1,0)	(1,0)	(1,0)	(1,0)	(1,0)	(1,0)	(1,0)	(1,0)	(1,0)	(1,0)	(1,0)	
L1D -336>	(1,1)	(1,0)	(1,0)	(1,0)	(1,0)	(1,0)	(1,0)	(1,0)	(1,0)	(1,0)	(1,0)	(1,0)	(1,0)	(1,0)	(1,0)	(1,0)	
L1D -335>	(0,42)	(1,119)	(3,88)	(1,0)	(1,0)	(1,0)	(1,0)	(1,0)	(1,0)	(1,0)	(1,0)	(1,0)	(1,0)	(1,0)	(1,0)	(1,0)	
L1D -334>	(1,0)	(1,0)	(1,0)	(1,0)	(1,0)	(1,0)	(1,0)	(1,0)	(1,0)	(1,0)	(1,0)	(1,0)	(1,0)	(1,0)	(1,0)	(1,0)	
L1D -333>	(1,0)	(1,0)	(1,0)	(1,0)	(1,0)	(1,0)	(1,0)	(1,0)	(1,0)	(1,0)	(1,0)	(1,0)	(1,0)	(1,0)	(1,0)	(1,0)	
L1D -332>	(1,0)	(1,0)	(1,0)	(1,0)	(1,0)	(1,0)	(1,0)	(1,0)	(1,0)	(1,0)	(1,0)	(1,0)	(1,0)	(1,0)	(1,0)	(1,0)	
L1D -331>	(-1,1)	(1,0)	(1,0)	(1,0)	(1,0)	(1,0)	(1,0)	(1,0)	(1,0)	(1,0)	(1,0)	(1,0)	(1,0)	(1,0)	(1,0)	(1,0)	
L1D -330>	(1,0)	(1,0)	(1,0)	(1,0)	(1,0)	(1,0)	(1,0)	(1,0)	(1,0)	(1,0)	(1,0)	(1,0)	(1,0)	(1,0)	(1,0)	(1,0)	
L1D -329>	(-2,1)	(1,0)	(1,0)	(1,0)	(1,0)	(1,0)	(1,0)	(1,0)	(1,0)	(1,0)	(1,0)	(1,0)	(1,0)	(1,0)	(1,0)	(1,0)	
L1D -328>	(1,0)	(1,0)	(1,0)	(1,0)	(1,0)	(1,0)	(1,0)	(1,0)	(1,0)	(1,0)	(1,0)	(1,0)	(1,0)	(1,0)	(1,0)	(1,0)	
L1D -327>	(1,0)	(1,0)	(1,0)	(1,0)	(1,0)	(1,0)	(1,0)	(1,0)	(1,0)	(1,0)	(1,0)	(1,0)	(1,0)	(1,0)	(1,0)	(1,0)	
L1D -326>	(1,0)	(1,0)	(1,0)	(1,0)	(1,0)	(1,0)	(1,0)	(1,0)	(1,0)	(1,0)	(1,0)	(1,0)	(1,0)	(1,0)	(1,0)	(1,0)	
L1D -325>	(1,0)	(1,0)	(1,0)	(1,0)	(1,0)	(1,0)	(1,0)	(1,0)	(1,0)	(1,0)	(1,0)	(1,0)	(1,0)	(1,0)	(1,0)	(1,0)	
L1D -324>	(88,1)	(1,0)	(1,0)	(1,0)	(1,0)	(1,0)	(1,0)	(1,0)	(1,0)	(1,0)	(1,0)	(1,0)	(1,0)	(1,0)	(1,0)	(1,0)	
L1D -323>	(88,1)	(1,0)	(1,0)	(1,0)	(1,0)	(1,0)	(1,0)	(1,0)	(1,0)	(1,0)	(1,0)	(1,0)	(1,0)	(1,0)	(1,0)	(1,0)	
L1D -322>	(323,34)	(146,6)	(350,6)	(1,0)	(1,0)	(1,0)	(1,0)	(1,0)	(1,0)	(1,0)	(1,0)	(1,0)	(1,0)	(1,0)	(1,0)	(1,0)	
L1D -321>	(16,35)	(1,17)	(1,0)	(1,0)	(1,0)	(1,0)	(1,0)	(1,0)	(1,0)	(1,0)	(1,0)	(1,0)	(1,0)	(1,0)	(1,0)	(1,0)	
L1D -320>	(16,78)	(1,18)	(347,0)	(1,0)	(1,0)	(1,0)	(1,0)	(1,0)	(1,0)	(1,0)	(1,0)	(1,0)	(1,0)	(1,0)	(1,0)	(1,0)	
L1D -319>	(347,99)	(1,0)	(1,0)	(1,0)	(1,0)	(1,0)	(1,0)	(1,0)	(1,0)	(1,0)	(1,0)	(1,0)	(1,0)	(1,0)	(1,0)	(1,0)	
L1D -318>	(1,0)	(1,0)	(1,0)	(1,0)	(1,0)	(1,0)	(1,0)	(1,0)	(1,0)	(1,0)	(1,0)	(1,0)	(1,0)	(1,0)	(1,0)	(1,0)	
L1D -317>	(1,0)	(1,0)	(1,0)	(1,0)	(1,0)	(1,0)	(1,0)	(1,0)	(1,0)	(1,0)	(1,0)	(1,0)	(1,0)	(1,0)	(1,0)	(1,0)	
L1D -316>	(1,0)	(1,0)	(1,0)	(1,0)	(1,0)	(1,0)	(1,0)	(1,0)	(1,0)	(1,0)	(1,0)	(1,0)	(1,0)	(1,0)	(1,0)	(1,0)	
L1D -315>	(88,1)	(1,0)	(1,0)	(1,0)	(1,0)	(1,0)	(1,0)	(1,0)	(1,0)	(1,0)	(1,0)	(1,0)	(1,0)	(1,0)	(1,0)	(1,0)	
L1D -314>	(88,2)	(1,0)	(1,0)	(1,0)	(1,0)	(1,0)	(1,0)	(1,0)	(1,0)	(1,0)	(1,0)	(1,0)	(1,0)	(1,0)	(1,0)	(1,0)	
L1D -313>	(1,0)	(1,0)	(1,0)	(1,0)	(1,0)	(1,0)	(1,0)	(1,0)	(1,0)	(1,0)	(1,0)	(1,0)	(1,0)	(1,0)	(1,0)	(1,0)	
L1D -312>	(1,0)	(1,0)	(1,0)	(1,0)	(1,0)	(1,0)	(1,0)	(1,0)	(1,0)	(1,0)	(1,0)	(1,0)	(1,0)	(1,0)	(1,0)	(1,0)	
L1D -311>	(0,12)	(1,121)	(2,56)	(3,2)	(1,0)	(1,0)	(1,0)	(1,0)	(1,0)	(1,0)	(1,0)	(1,0)	(1,0)	(1,0)	(1,0)	(1,0)	
L1D -310>	(2,36)	(1,32)	(0,8)	(1,0)	(1,0)	(1,0)	(1,0)	(1,0)	(1,0)	(1,0)	(1,0)	(1,0)	(1,0)	(1,0)	(1,0)	(1,0)	
L1D -309>	(2,8)	(0,6)	(1,0)	(1,0)	(1,0)	(1,0)	(1,0)	(1,0)	(1,0)	(1,0)	(1,0)	(1,0)	(1,0)	(1,0)	(1,0)	(1,0)	
L1D -308>	(1,0)	(1,0)	(1,0)	(1,0)	(1,0)	(1,0)	(1,0)	(1,0)	(1,0)	(1,0)	(1,0)	(1,0)	(1,0)	(1,0)	(1,0)	(1,0)	
L1D -307>	(1,0)	(1,0)	(1,0)	(1,0)	(1,0)	(1,0)	(1,0)	(1,0)	(1,0)	(1,0)	(1,0)	(1,0)	(1,0)	(1,0)	(1,0)	(1,0)	
L1D -306>	(2,5)	(1,0)	(1,0)	(1,0)	(1,0)	(1,0)	(1,0)	(1,0)	(1,0)	(1,0)	(1,0)	(1,0)	(1,0)	(1,0)	(1,0)	(1,0)	
L1D -305>	(1,0)	(1,0)	(1,0)	(1,0)	(1,0)	(1,0)	(1,0)	(1,0)	(1,0)	(1,0)	(1,0)	(1,0)	(1,0)	(1,0)	(1,0)	(1,0)	
L1D -304>	(6,5)	(-2,1)	(1,0)	(1,0)	(1,0)	(1,0)	(1,0)	(1,0)	(1,0)	(1,0)	(1,0)	(1,0)	(1,0)	(1,0)	(1,0)	(1,0)	
L1D -303>	(6,1)	(1,0)	(1,0)	(1,0)	(1,0)	(1,0)	(1,0)	(1,0)	(1,0)	(1,0)	(1,0)	(1,0)	(1,0)	(1,0)	(1,0)	(1,0)	
L1D -302>	(291,87)	(-8,0)	(1,0)	(1,0)	(1,0)	(1,0)	(1,0)	(1,0)	(1,0)	(1,0)	(1,0)	(1,0)	(1,0)	(1,0)	(1,0)	(1,0)	
L1D -301>	(1,0)	(1,0)	(1,0)	(1,0)	(1,0)	(1,0)	(1,0)	(1,0)	(1,0)	(1,0)	(1,0)	(1,0)	(1,0)	(1,0)	(1,0)	(1,0)	
L1D -300>	(1,0)	(1,0)	(1,0)	(1,0)	(1,0)	(1,0)	(1,0)	(1,0)	(1,0)	(1,0)	(1,0)	(1,0)	(1,0)	(1,0)	(1,0)	(1,0)	
L1D -299>	(88,2)	(1,0)	(1,0)	(1,0)	(1,0)	(1,0)	(1,0)	(1,0)	(1,0)	(1,0)	(1,0)	(1,0)	(1,0)	(1,0)	(1,0)	(1,0)	
L1D -298>	(1,0)	(1,0)	(1,0)	(1,0)	(1,0)	(1,0)	(1,0)	(1,0)	(1,0)	(1,0)	(1,0)	(1,0)	(1,0)	(1,0)	(1,0)	(1,0)	
L1D -297>	(1,0)	(1,0)	(1,0)	(1,0)	(1,0)	(1,0)	(1,0)	(1,0)	(1,0)	(1,0)	(1,0)	(1,0)	(1,0)	(1,0)	(1,0)	(1,0)	
L1D -296>	(291,25)	(1,0)	(1,0)	(1,0)	(1,0)	(1,0)	(1,0)	(1,0)	(1,0)	(1,0)	(1,0)	(1,0)	(1,0)	(1,0)	(1,0)	(1,0)	
L1D -295>	(301,51)	(1,0)	(1,0)	(1,0)	(1,0)	(1,0)	(1,0)	(1,0)	(1,0)	(1,0)	(1,0)	(1,0)	(1,0)	(1,0)	(1,0)	(1,0)	
L1D -294>	(291,26)	(-8,2)	(1,0)	(1,0)	(1,0)	(1,0)	(1,0)	(1,0)	(1,0)	(1,0)	(1,0)	(1,0)	(1,0)	(1,0)	(1,0)	(1,0)	
L1D -293>	(1,0)	(1,0)	(1,0)	(1,0)	(1,0)	(1,0)	(1,0)	(1,0)	(1,0)	(1,0)	(1,0)	(1,0)	(1,0)	(1,0)	(1,0)	(1,0)	
L1D -292>	(295,104)	(1,0)	(1,0)	(1,0)	(1,0)	(1,0)	(1,0)	(1,0)	(1,0)	(1,0)	(1,0)	(1,0)	(1,0)	(1,0)	(1,0)	(1,0)	
L1D -291>	(294,102)	(1,0)	(1,0)	(1,0)	(1,0)	(1,0)	(1,0)	(1,0)	(1,0)	(1,0)	(1,0)	(1,0)	(1,0)	(1,0)	(1,0)	(1,0)	
L1D -290>	(301,25)	(1,0)	(1,0)	(1,0)	(1,0)	(1,0)	(1,0)	(1,0)	(1,0)	(1,0)	(1,0)	(1,0)	(1,0)	(1,0)	(1,0)	(1,0)	
L1D -289>	(1,0)	(1,0)	(1,0)	(1,0)	(1,0)	(1,0)	(1,0)	(1,0)	(1,0)	(1,0)	(1,0)	(1,0)	(1,0)	(1,0)	(1,0)	(1,0)	
L1D -288>	(105,125)	(1,0)	(1,0)	(1,0)	(1,0)	(1,0)	(1,0)	(1,0)	(1,0)	(1,0)	(1,0)	(1,0)	(1,0)	(1,0)	(1,0)	(1,0)	
L1D -287>	(105,37)	(1,0)	(1,0)	(1,0)	(1,0)	(1,0)	(1,0)	(1,0)	(1,0)	(1,0)	(1,0)	(1,0)	(1,0)	(1,0)	(1,0)	(1,0)	
L1D -286>	(105,1)	(1,0)	(1,0)	(1,0)	(1,0)	(1,0)	(1,0)	(1,0)	(1,0)	(1,0)	(1,0)	(1,0)	(1,0)	(1,0)	(1,0)	(1,0)	
L1D -285>	(1,0)	(1,0)	(1,0)	(1,0)	(1,0)	(1,0)	(1,0)	(1,0)	(1,0)	(1,0)	(1,0)	(1,0)	(1,0)	(1,0)	(1,0)	(1,0)	
L1D -284>	(105,20)	(1,0)	(1,0)	(1,0)	(1,0)	(1,0)	(1,0)	(1,0)	(1,0)	(1,0)	(1,0)	(1,0)	(1,0)	(1,0)	(1,0)	(1,0)	
L1D -283>	(105,36)	(1,0)	(1,0)	(1,0)	(1,0)	(1,0)	(1,0)	(1,0)	(1,0)	(1,0)	(1,0)	(1,0)	(1,0)	(1,0)	(1,0)	(1,0)	
L1D -282>	(105,2)	(1,0)	(1,0)	(1,0)	(1,0)	(1,0)	(1,0)	(1,0)	(1,0)	(1,0)	(1,0)	(1,0)	(1,0)	(1,0)	(1,0)	(1,0)	
L1D -281>	(105,33)	(1,0)	(1,0)	(1,0)	(1,0)	(1,0)	(1,0)	(1,0)	(1,0)	(1,0)	(1,0)	(1,0)	(1,0)	(1,0)	(1,0)	(1,0)	
L1D -280>	(105,1)	(-8,3)	(1,0)	(1,0)	(1,0)	(1,0)	(1,0)	(1,0)	(1,0)	(1,0)	(1,0)	(1,0)	(1,0)	(1,0)	(1,0)	(1,0)	
L1D -279>	(291,1)	(105,28)	(1,1)	(1,0)	(1,0)	(1,0)	(1,0)	(1,0)	(1,0)	(1,0)	(1,0)	(1,0)	(1,0)	(1,0)	(1,0)	(1,0)	
L1D -278>	(0,1)	(88,1)	(1,0)	(1,0)	(1,0)	(1,0)	(1,0)	(1,0)	(1,0)	(1,0)	(1,0)	(1,0)	(1,0)	(1,0)	(1,0)	(1,0)	
L1D -277>	(88,1)	(105,44)	(1,5)	(1,0)	(1,0)	(1,0)	(1,0)	(1,0)	(1,0)	(1,0)	(1,0)	(1,0)	(1,0)	(1,0)	(1,0)	(1,0)	
L1D -276>	(105,10)	(1,0)	(1,0)	(1,0)	(1,0)	(1,0)	(1,0)	(1,0)	(1,0)	(1,0)	(1,0)	(1,0)	(1,0)	(1,0)	(1,0)	(1,0)	
L1D -275>	(105,21)	(1,0)	(1,0)	(1,0)	(1,0)	(1,0)	(1,0)	(1,0)	(1,0)	(1,0)	(1,0)	(1,0)	(1,0)	(1,0)	(1,0)	(1,0)	
L1D -274>	(88,1)	(105,2)	(1,0)	(1,0)	(1,0)	(1,0)	(1,0)	(1,0)	(1,0)	(1,0)	(1,0)	(1,0)	(1,0)	(1,0)	(1,0)	(1,0)	
L1D -273>	(105,22)	(1,0)	(1,0)	(1,0)	(1,0)	(1,0)	(1,0)	(1,0)	(1,0)	(1,0)	(1,0)	(1,0)	(1,0)	(1,0)	(1,0)	(1,0)	
L1D -272>	(105,2)	(88,1)	(1,0)	(1,0)	(1,0)	(1,0)	(1,0)	(1,0)	(1,0)	(1,0)	(1,0)	(1,0)	(1,0)	(1,0)	(1,0)	(1,0)	
L1D -271>	(0,1)	(1,1)	(88,1)	(105,31)	(1,0)	(1,0)	(1,0)	(1,0)	(1,0)	(1,0)	(1,0)	(1,0)	(1,0)	(1,0)	(1,0)	(1,0)	
L1D -270>	(105,4)	(1,0)	(1,0)	(1,0)	(1,0)	(1,0)	(1,0)	(1,0)	(1,0)	(1,0)	(1,0)	(1,0)	(1,0)	(1,0)	(1,0)	(1,0)	
L1D -269>	(1,5)	(88,1)	(0,1)	(1,0)	(1,0)	(1,0)	(1,0)	(1,0)	(1,0)	(1,0)	(1,0)	(1,0)	(1,0)	(1,0)	(1,0)	(1,0)	
L1D -268>	(0,1)	(1,2)	(1,0)	(1,0)	(1,0)	(1,0)	(1,0)	(1,0)	(1,0)	(1,0)	(1,0)	(1,0)	(1,0)	(1,0)	(1,0)	(1,0)	
L1D -267>	(1,6)	(2,1)	(88,8)	(0,5)	(267,1)	(1,0)	(1,0)	(1,0)	(1,0)	(1,0)	(1,0)	(1,0)	(1,0)	(1,0)	(1,0)	(1,0)	
L1D -266>	(0,1)	(1,5)	(88,1)	(2,0)	(255,117)	(1,0)	(1,0)	(1,0)	(1,0)	(1,0)	(1,0)	(1,0)	(1,0)	(1,0)	(1,0)	(1,0)	
L1D -265>	(0,53)	(1,21)	(88,79)	(-1,2)	(176,1)	(1,0)	(1,0)	(1,0)	(1,0)	(1,0)	(1,0)	(1,0)	(1,0)	(1,0)	(1,0)	(1,0)	
L1D -264>	(0,117)	(-1,1)	(88,81)	(497,0)	(1,3)	(1,0)	(1,0)	(1,0)	(1,0)	(1,0)	(1,0)	(1,0)	(1,0)	(1,0)	(1,0)	(1,0)	
L1D -263>	(0,67)	(88,93)	(87,3)	(1,3)	(-1,12)	(1,0)	(1,0)	(1,0)	(1,0)	(1,0)	(1,0)	(1,0)	(1,0)	(1,0)	(1,0)	(1,0)	
L1D -262>	(0,8)	(1,0)	(1,0)	(1,0)	(1,0)	(1,0)	(1,0)	(1,0)	(1,0)	(1,0)	(1,0)	(1,0)	(1,0)	(1,0)	(1,0)	(1,0)	
L1D -261>	(0,67)	(1,0)	(1,0)	(1,0)	(1,0)	(1,0)	(1,0)	(1,0)	(1,0)	(1,0)	(1,0)	(1,0)	(1,0)	(1,0)	(1,0)	(1,0)	
L1D -260>	(0,47)	(255,2)	(1,0)	(1,0)	(1,0)	(1,0)	(1,0)	(1,0)	(1,0)	(1,0)	(1,0)	(1,0)	(1,0)	(1,0)	(1,0)	(1,0)	
L1D -259>	(0,0)	(-1,0)	(-3,0)	(265,107)	(1,0)	(1,0)	(1,0)	(1,0)	(1,0)	(1,0)	(1,0)	(1,0)	(1,0)	(1,0)	(1,0)	(1,0)	
L1D -258>	(0,35)	(1,0)	(1,0)	(1,0)	(1,0)	(1,0)	(1,0)	(1,0)	(1,0)	(1,0)	(1,0)	(1,0)	(1,0)	(1,0)	(1,0)	(1,0)	
L1D -257>	(0,51)	(-3,1)	(1,0)	(1,0)	(1,0)	(1,0)	(1,0)	(1,0)	(1,0)	(1,0)	(1,0)	(1,0)	(1,0)	(1,0)	(1,0)	(1,0)	
L1D -256>	(0,88)	(-3,2)	(31,1)	(259,10)	(1,0)	(1,0)	(1,0)	(1,0)	(1,0)	(1,0)	(1,0)	(1,0)	(1,0)	(1,0)	(1,0)	(1,0)	
L1D -255>	(267,1)	(0,14)	(1,0)	(1,0)	(1,0)	(1,0)	(1,0)	(1,0)	(1,0)	(1,0)	(1,0)	(1,0)	(1,0)	(1,0)	(1,0)	(1,0)	
L1D -254>	(121,7)	(0,7)	(70,1)	(259,33)	(-8,1)	(265,1)	(1,0)	(1,0)	(1,0)	(1,0)	(1,0)	(1,0)	(1,0)	(1,0)	(1,0)	(1,0)	
L1D -253>	(1,2)	(1,0)	(1,0)	(1,0)	(1,0)	(1,0)	(1,0)	(1,0)	(1,0)	(1,0)	(1,0)	(1,0)	(1,0)	(1,0)	(1,0)	(1,0)	
L1D -252>	(2,1)	(1,0)	(1,0)	(1,0)	(1,0)	(1,0)	(1,0)	(1,0)	(1,0)	(1,0)	(1,0)	(1,0)	(1,0)	(1,0)	(1,0)	(1,0)	
L1D -251>	(0,2)	(78,1)	(251,1)	(1,0)	(1,0)	(1,0)	(1,0)	(1,0)	(1,0)	(1,0)	(1,0)	(1,0)	(1,0)	(1,0)	(1,0)	(1,0)	
L1D -250>	(254,13)	(70,11)	(121,4)	(47,1)	(113,1)	(1,0)	(1,0)	(1,0)	(1,0)	(1,0)	(1,0)	(1,0)	(1,0)	(1,0)	(1,0)	(1,0)	
L1D -249>	(249,1)	(1,0)	(1,0)	(1,0)	(1,0)	(1,0)	(1,0)	(1,0)	(1,0)	(1,0)	(1,0)	(1,0)	(1,0)	(1,0)	(1,0)	(1,0)	
L1D -248>	(2,1)	(248,4)	(-4,1)	(1,0)	(1,0)	(1,0)	(1,0)	(1,0)	(1,0)	(1,0)	(1,0)	(1,0)	(1,0)	(1,0)	(1,0)	(1,0)	
L1D -247>	(0,39)	(247,1)	(1,0)	(1,0)	(1,0)	(1,0)	(1,0)	(1,0)	(1,0)	(1,0)	(1,0)	(1,0)	(1,0)	(1,0)	(1,0)	(1,0)	
L1D -246>	(0,93)	(-3,1)	(1,0)	(1,0)	(1,0)	(1,0)	(1,0)	(1,0)	(1,0)	(1,0)	(1,0)	(1,0)	(1,0)	(1,0)	(1,0)	(1,0)	
L1D -245>	(0,77)	(-3,0)	(1,0)	(1,0)	(1,0)	(1,0)	(1,0)	(1,0)	(1,0)	(1,0)	(1,0)	(1,0)	(1,0)	(1,0)	(1,0)	(1,0)	
L1D -244>	(0,104)	(-3,1)	(1,0)	(1,0)	(1,0)	(1,0)	(1,0)	(1,0)	(1,0)	(1,0)	(1,0)	(1,0)	(1,0)	(1,0)	(1,0)	(1,0)	
L1D -243>	(6,5)	(0,105)	(1,0)	(1,0)	(1,0)	(1,0)	(1,0)	(1,0)	(1,0)	(1,0)	(1,0)	(1,0)	(1,0)	(1,0)	(1,0)	(1,0)	
L1D -242>	(47,56)	(0,125)	(-3,1)	(62,1)	(130,1)	(1,0)	(1,0)	(1,0)	(1,0)	(1,0)	(1,0)	(1,0)	(1,0)	(1,0)	(1,0)	(1,0)	
L1D -241>	(0,2)	(1,0)	(1,0)	(1,0)	(1,0)	(1,0)	(1,0)	(1,0)	(1,0)	(1,0)	(1,0)	(1,0)	(1,0)	(1,0)	(1,0)	(1,0)	
L1D -240>	(0,89)	(-3,0)	(1,0)	(1,0)	(1,0)	(1,0)	(1,0)	(1,0)	(1,0)	(1,0)	(1,0)	(1,0)	(1,0)	(1,0)	(1,0)	(1,0)	
L1D -239>	(1,0)	(1,0)	(1,0)	(1,0)	(1,0)	(1,0)	(1,0)	(1,0)	(1,0)	(1,0)	(1,0)	(1,0)	(1,0)	(1,0)	(1,0)	(1,0)	
L1D -238>	(1,0)	(1,0)	(1,0)	(1,0)	(1,0)	(1,0)	(1,0)	(1,0)	(1,0)	(1,0)	(1,0)	(1,0)	(1,0)	(1,0)	(1,0)	(1,0)	
L1D -237>	(47,1)	(1,0)	(1,0)	(1,0)	(1,0)	(1,0)	(1,0)	(1,0)	(1,0)	(1,0)	(1,0)	(1,0)	(1,0)	(1,0)	(1,0)	(1,0)	
L1D -236>	(88,1)	(1,0)	(1,0)	(1,0)	(1,0)	(1,0)	(1,0)	(1,0)	(1,0)	(1,0)	(1,0)	(1,0)	(1,0)	(1,0)	(1,0)	(1,0)	
L1D -235>	(1,0)	(1,0)	(1,0)	(1,0)	(1,0)	(1,0)	(1,0)	(1,0)	(1,0)	(1,0)	(1,0)	(1,0)	(1,0)	(1,0)	(1,0)	(1,0)	
L1D -234>	(1,0)	(1,0)	(1,0)	(1,0)	(1,0)	(1,0)	(1,0)	(1,0)	(1,0)	(1,0)	(1,0)	(1,0)	(1,0)	(1,0)	(1,0)	(1,0)	
L1D -233>	(17,108)	(1,0)	(1,0)	(1,0)	(1,0)	(1,0)	(1,0)	(1,0)	(1,0)	(1,0)	(1,0)	(1,0)	(1,0)	(1,0)	(1,0)	(1,0)	
L1D -232>	(84,1)	(110,2)	(224,3)	(1,0)	(1,0)	(1,0)	(1,0)	(1,0)	(1,0)	(1,0)	(1,0)	(1,0)	(1,0)	(1,0)	(1,0)	(1,0)	
L1D -231>	(1,0)	(1,0)	(1,0)	(1,0)	(1,0)	(1,0)	(1,0)	(1,0)	(1,0)	(1,0)	(1,0)	(1,0)	(1,0)	(1,0)	(1,0)	(1,0)	
L1D -230>	(2,1)	(1,0)	(1,0)	(1,0)	(1,0)	(1,0)	(1,0)	(1,0)	(1,0)	(1,0)	(1,0)	(1,0)	(1,0)	(1,0)	(1,0)	(1,0)	
L1D -229>	(110,3)	(88,1)	(1,0)	(1,0)	(1,0)	(1,0)	(1,0)	(1,0)	(1,0)	(1,0)	(1,0)	(1,0)	(1,0)	(1,0)	(1,0)	(1,0)	
L1D -228>	(224,1)	(1,0)	(1,0)	(1,0)	(1,0)	(1,0)	(1,0)	(1,0)	(1,0)	(1,0)	(1,0)	(1,0)	(1,0)	(1,0)	(1,0)	(1,0)	
L1D -227>	(110,1)	(88,2)	(1,0)	(1,0)	(1,0)	(1,0)	(1,0)	(1,0)	(1,0)	(1,0)	(1,0)	(1,0)	(1,0)	(1,0)	(1,0)	(1,0)	
L1D -226>	(88,2)	(1,0)	(1,0)	(1,0)	(1,0)	(1,0)	(1,0)	(1,0)	(1,0)	(1,0)	(1,0)	(1,0)	(1,0)	(1,0)	(1,0)	(1,0)	
L1D -225>	(88,1)	(1,0)	(1,0)	(1,0)	(1,0)	(1,0)	(1,0)	(1,0)	(1,0)	(1,0)	(1,0)	(1,0)	(1,0)	(1,0)	(1,0)	(1,0)	
L1D -224>	(42,1)	(224,1)	(-18,2)	(-26,1)	(1,0)	(1,0)	(1,0)	(1,0)	(1,0)	(1,0)	(1,0)	(1,0)	(1,0)	(1,0)	(1,0)	(1,0)	
L1D -223>	(1,1)	(1,0)	(1,0)	(1,0)	(1,0)	(1,0)	(1,0)	(1,0)	(1,0)	(1,0)	(1,0)	(1,0)	(1,0)	(1,0)	(1,0)	(1,0)	
L1D -222>	(-248,1)	(1,0)	(1,0)	(1,0)	(1,0)	(1,0)	(1,0)	(1,0)	(1,0)	(1,0)	(1,0)	(1,0)	(1,0)	(1,0)	(1,0)	(1,0)	
L1D -221>	(1,1)	(0,1)	(1,0)	(1,0)	(1,0)	(1,0)	(1,0)	(1,0)	(1,0)	(1,0)	(1,0)	(1,0)	(1,0)	(1,0)	(1,0)	(1,0)	
L1D -220>	(0,3)	(3,1)	(1,0)	(1,0)	(1,0)	(1,0)	(1,0)	(1,0)	(1,0)	(1,0)	(1,0)	(1,0)	(1,0)	(1,0)	(1,0)	(1,0)	
L1D -219>	(224,2)	(228,7)	(-18,1)	(0,1)	(1,0)	(1,0)	(1,0)	(1,0)	(1,0)	(1,0)	(1,0)	(1,0)	(1,0)	(1,0)	(1,0)	(1,0)	
L1D -218>	(1,0)	(1,0)	(1,0)	(1,0)	(1,0)	(1,0)	(1,0)	(1,0)	(1,0)	(1,0)	(1,0)	(1,0)	(1,0)	(1,0)	(1,0)	(1,0)	
L1D -217>	(0,2)	(1,0)	(1,0)	(1,0)	(1,0)	(1,0)	(1,0)	(1,0)	(1,0)	(1,0)	(1,0)	(1,0)	(1,0)	(1,0)	(1,0)	(1,0)	
L1D -216>	(20,3)	(-2,1)	(1,0)	(1,0)	(1,0)	(1,0)	(1,0)	(1,0)	(1,0)	(1,0)	(1,0)	(1,0)	(1,0)	(1,0)	(1,0)	(1,0)	
L1D -215>	(88,1)	(0,1)	(1,0)	(1,0)	(1,0)	(1,0)	(1,0)	(1,0)	(1,0)	(1,0)	(1,0)	(1,0)	(1,0)	(1,0)	(1,0)	(1,0)	
L1D -214>	(1,0)	(1,0)	(1,0)	(1,0)	(1,0)	(1,0)	(1,0)	(1,0)	(1,0)	(1,0)	(1,0)	(1,0)	(1,0)	(1,0)	(1,0)	(1,0)	
L1D -213>	(1,0)	(1,0)	(1,0)	(1,0)	(1,0)	(1,0)	(1,0)	(1,0)	(1,0)	(1,0)	(1,0)	(1,0)	(1,0)	(1,0)	(1,0)	(1,0)	
L1D -212>	(-72,1)	(0,1)	(1,0)	(1,0)	(1,0)	(1,0)	(1,0)	(1,0)	(1,0)	(1,0)	(1,0)	(1,0)	(1,0)	(1,0)	(1,0)	(1,0)	
L1D -211>	(-32,1)	(-2,1)	(1,0)	(1,0)	(1,0)	(1,0)	(1,0)	(1,0)	(1,0)	(1,0)	(1,0)	(1,0)	(1,0)	(1,0)	(1,0)	(1,0)	
L1D -210>	(-3,1)	(1,0)	(1,0)	(1,0)	(1,0)	(1,0)	(1,0)	(1,0)	(1,0)	(1,0)	(1,0)	(1,0)	(1,0)	(1,0)	(1,0)	(1,0)	
L1D -209>	(-32,2)	(-9,1)	(1,0)	(1,0)	(1,0)	(1,0)	(1,0)	(1,0)	(1,0)	(1,0)	(1,0)	(1,0)	(1,0)	(1,0)	(1,0)	(1,0)	
L1D -208>	(1,0)	(1,0)	(1,0)	(1,0)	(1,0)	(1,0)	(1,0)	(1,0)	(1,0)	(1,0)	(1,0)	(1,0)	(1,0)	(1,0)	(1,0)	(1,0)	
L1D -207>	(-10,1)	(1,0)	(1,0)	(1,0)	(1,0)	(1,0)	(1,0)	(1,0)	(1,0)	(1,0)	(1,0)	(1,0)	(1,0)	(1,0)	(1,0)	(1,0)	
L1D -206>	(-3,3)	(206,23)	(2,1)	(1,0)	(1,0)	(1,0)	(1,0)	(1,0)	(1,0)	(1,0)	(1,0)	(1,0)	(1,0)	(1,0)	(1,0)	(1,0)	
L1D -205>	(-16,1)	(1,0)	(1,0)	(1,0)	(1,0)	(1,0)	(1,0)	(1,0)	(1,0)	(1,0)	(1,0)	(1,0)	(1,0)	(1,0)	(1,0)	(1,0)	
L1D -204>	(-143,1)	(1,0)	(1,0)	(1,0)	(1,0)	(1,0)	(1,0)	(1,0)	(1,0)	(1,0)	(1,0)	(1,0)	(1,0)	(1,0)	(1,0)	(1,0)	
L1D -203>	(55,10)	(203,17)	(1,1)	(0,1)	(212,1)	(25,1)	(1,0)	(1,0)	(1,0)	(1,0)	(1,0)	(1,0)	(1,0)	(1,0)	(1,0)	(1,0)	
L1D -202>	(2,43)	(208,99)	(1,0)	(1,0)	(1,0)	(1,0)	(1,0)	(1,0)	(1,0)	(1,0)	(1,0)	(1,0)	(1,0)	(1,0)	(1,0)	(1,0)	
L1D -201>	(1,0)	(1,0)	(1,0)	(1,0)	(1,0)	(1,0)	(1,0)	(1,0)	(1,0)	(1,0)	(1,0)	(1,0)	(1,0)	(1,0)	(1,0)	(1,0)	
L1D -200>	(206,45)	(2,1)	(1,0)	(1,0)	(1,0)	(1,0)	(1,0)	(1,0)	(1,0)	(1,0)	(1,0)	(1,0)	(1,0)	(1,0)	(1,0)	(1,0)	
L1D -199>	(2,104)	(202,9)	(1,0)	(1,0)	(1,0)	(1,0)	(1,0)	(1,0)	(1,0)	(1,0)	(1,0)	(1,0)	(1,0)	(1,0)	(1,0)	(1,0)	
L1D -198>	(1,0)	(1,0)	(1,0)	(1,0)	(1,0)	(1,0)	(1,0)	(1,0)	(1,0)	(1,0)	(1,0)	(1,0)	(1,0)	(1,0)	(1,0)	(1,0)	
L1D -197>	(202,120)	(2,3)	(1,0)	(1,0)	(1,0)	(1,0)	(1,0)	(1,0)	(1,0)	(1,0)	(1,0)	(1,0)	(1,0)	(1,0)	(1,0)	(1,0)	
L1D -196>	(67,5)	(0,5)	(204,3)	(1,0)	(1,0)	(1,0)	(1,0)	(1,0)	(1,0)	(1,0)	(1,0)	(1,0)	(1,0)	(1,0)	(1,0)	(1,0)	
L1D -195>	(1,0)	(1,0)	(1,0)	(1,0)	(1,0)	(1,0)	(1,0)	(1,0)	(1,0)	(1,0)	(1,0)	(1,0)	(1,0)	(1,0)	(1,0)	(1,0)	
L1D -194>	(1,0)	(1,0)	(1,0)	(1,0)	(1,0)	(1,0)	(1,0)	(1,0)	(1,0)	(1,0)	(1,0)	(1,0)	(1,0)	(1,0)	(1,0)	(1,0)	
L1D -193>	(1,0)	(1,0)	(1,0)	(1,0)	(1,0)	(1,0)	(1,0)	(1,0)	(1,0)	(1,0)	(1,0)	(1,0)	(1,0)	(1,0)	(1,0)	(1,0)	
L1D -192>	(1,1)	(105,1)	(1,0)	(1,0)	(1,0)	(1,0)	(1,0)	(1,0)	(1,0)	(1,0)	(1,0)	(1,0)	(1,0)	(1,0)	(1,0)	(1,0)	
L1D -191>	(20,26)	(105,7)	(9,1)	(1,0)	(1,0)	(1,0)	(1,0)	(1,0)	(1,0)	(1,0)	(1,0)	(1,0)	(1,0)	(1,0)	(1,0)	(1,0)	
L1D -190>	(5,48)	(-8,2)	(105,44)	(1,0)	(1,0)	(1,0)	(1,0)	(1,0)	(1,0)	(1,0)	(1,0)	(1,0)	(1,0)	(1,0)	(1,0)	(1,0)	
L1D -189>	(101,4)	(1,3)	(105,80)	(0,2)	(1,0)	(1,0)	(1,0)	(1,0)	(1,0)	(1,0)	(1,0)	(1,0)	(1,0)	(1,0)	(1,0)	(1,0)	
L1D -188>	(0,2)	(105,26)	(1,1)	(-2,1)	(4,1)	(1,0)	(1,0)	(1,0)	(1,0)	(1,0)	(1,0)	(1,0)	(1,0)	(1,0)	(1,0)	(1,0)	
L1D -187>	(180,1)	(105,32)	(187,1)	(1,0)	(1,0)	(1,0)	(1,0)	(1,0)	(1,0)	(1,0)	(1,0)	(1,0)	(1,0)	(1,0)	(1,0)	(1,0)	
L1D -186>	(190,7)	(187,1)	(105,17)	(1,0)	(1,0)	(1,0)	(1,0)	(1,0)	(1,0)	(1,0)	(1,0)	(1,0)	(1,0)	(1,0)	(1,0)	(1,0)	
L1D -185>	(-70,0)	(104,33)	(0,0)	(1,1)	(105,83)	(1,0)	(1,0)	(1,0)	(1,0)	(1,0)	(1,0)	(1,0)	(1,0)	(1,0)	(1,0)	(1,0)	
L1D -184>	(51,10)	(-70,15)	(1,3)	(105,11)	(-44,1)	(1,0)	(1,0)	(1,0)	(1,0)	(1,0)	(1,0)	(1,0)	(1,0)	(1,0)	(1,0)	(1,0)	
L1D -183>	(51,2)	(105,5)	(88,1)	(13,1)	(1,0)	(1,0)	(1,0)	(1,0)	(1,0)	(1,0)	(1,0)	(1,0)	(1,0)	(1,0)	(1,0)	(1,0)	
L1D -182>	(94,48)	(-9,8)	(2,7)	(1,1)	(0,4)	(13,4)	(88,1)	(1,0)	(1,0)	(1,0)	(1,0)	(1,0)	(1,0)	(1,0)	(1,0)	(1,0)	
L1D -181>	(104,20)	(1,3)	(155,1)	(88,1)	(153,1)	(1,0)	(1,0)	(1,0)	(1,0)	(1,0)	(1,0)	(1,0)	(1,0)	(1,0)	(1,0)	(1,0)	
L1D -180>	(51,1)	(136,27)	(224,25)	(0,11)	(110,8)	(1,4)	(-15,1)	(-44,4)	(184,8)	(228,5)	(65,12)	(-70,5)	(188,7)	(180,1)	(88,3)	(-16,3)	
L1D -179>	(-1,103)	(1,0)	(182,0)	(88,0)	(186,0)	(1,0)	(1,0)	(1,0)	(1,0)	(1,0)	(1,0)	(1,0)	(1,0)	(1,0)	(1,0)	(1,0)	
L1D -178>	(1,80)	(0,33)	(88,34)	(186,1)	(182,1)	(188,1)	(-17,1)	(1,0)	(1,0)	(1,0)	(1,0)	(1,0)	(1,0)	(1,0)	(1,0)	(1,0)	
L1D -177>	(0,114)	(1,48)	(88,104)	(-1,4)	(176,0)	(1,0)	(1,0)	(1,0)	(1,0)	(1,0)	(1,0)	(1,0)	(1,0)	(1,0)	(1,0)	(1,0)	
L1D -176>	(0,95)	(1,1)	(88,54)	(264,0)	(-1,2)	(87,0)	(1,0)	(1,0)	(1,0)	(1,0)	(1,0)	(1,0)	(1,0)	(1,0)	(1,0)	(1,0)	
L1D -175>	(0,61)	(1,8)	(42,1)	(88,88)	(87,3)	(-1,14)	(105,94)	(86,1)	(1,0)	(1,0)	(1,0)	(1,0)	(1,0)	(1,0)	(1,0)	(1,0)	
L1D -174>	(15,2)	(0,4)	(10,1)	(-5,45)	(6,5)	(4,5)	(20,17)	(105,78)	(1,0)	(1,0)	(1,0)	(1,0)	(1,0)	(1,0)	(1,0)	(1,0)	
L1D -173>	(105,106)	(1,0)	(1,0)	(1,0)	(1,0)	(1,0)	(1,0)	(1,0)	(1,0)	(1,0)	(1,0)	(1,0)	(1,0)	(1,0)	(1,0)	(1,0)	
L1D -172>	(105,102)	(1,0)	(1,0)	(1,0)	(1,0)	(1,0)	(1,0)	(1,0)	(1,0)	(1,0)	(1,0)	(1,0)	(1,0)	(1,0)	(1,0)	(1,0)	
L1D -171>	(172,10)	(5,3)	(-11,16)	(105,123)	(173,1)	(1,0)	(1,0)	(1,0)	(1,0)	(1,0)	(1,0)	(1,0)	(1,0)	(1,0)	(1,0)	(1,0)	
L1D -170>	(-4,10)	(105,2)	(-70,5)	(-72,1)	(1,0)	(1,0)	(1,0)	(1,0)	(1,0)	(1,0)	(1,0)	(1,0)	(1,0)	(1,0)	(1,0)	(1,0)	
L1D -169>	(11,2)	(105,23)	(1,0)	(1,0)	(1,0)	(1,0)	(1,0)	(1,0)	(1,0)	(1,0)	(1,0)	(1,0)	(1,0)	(1,0)	(1,0)	(1,0)	
L1D -168>	(167,108)	(-11,5)	(-6,14)	(1,0)	(1,0)	(1,0)	(1,0)	(1,0)	(1,0)	(1,0)	(1,0)	(1,0)	(1,0)	(1,0)	(1,0)	(1,0)	
L1D -167>	(167,71)	(1,0)	(1,0)	(1,0)	(1,0)	(1,0)	(1,0)	(1,0)	(1,0)	(1,0)	(1,0)	(1,0)	(1,0)	(1,0)	(1,0)	(1,0)	
L1D -166>	(0,7)	(170,1)	(167,17)	(32,1)	(168,5)	(158,2)	(1,0)	(1,0)	(1,0)	(1,0)	(1,0)	(1,0)	(1,0)	(1,0)	(1,0)	(1,0)	
L1D -165>	(32,28)	(158,113)	(4,1)	(162,1)	(-6,3)	(159,18)	(-8,2)	(160,1)	(1,0)	(1,0)	(1,0)	(1,0)	(1,0)	(1,0)	(1,0)	(1,0)	
L1D -164>	(10,1)	(1,0)	(1,0)	(1,0)	(1,0)	(1,0)	(1,0)	(1,0)	(1,0)	(1,0)	(1,0)	(1,0)	(1,0)	(1,0)	(1,0)	(1,0)	
L1D -163>	(167,1)	(1,0)	(1,0)	(1,0)	(1,0)	(1,0)	(1,0)	(1,0)	(1,0)	(1,0)	(1,0)	(1,0)	(1,0)	(1,0)	(1,0)	(1,0)	
L1D -162>	(1,0)	(1,0)	(1,0)	(1,0)	(1,0)	(1,0)	(1,0)	(1,0)	(1,0)	(1,0)	(1,0)	(1,0)	(1,0)	(1,0)	(1,0)	(1,0)	
L1D -161>	(-10,10)	(1,0)	(1,0)	(1,0)	(1,0)	(1,0)	(1,0)	(1,0)	(1,0)	(1,0)	(1,0)	(1,0)	(1,0)	(1,0)	(1,0)	(1,0)	
L1D -160>	(-5,1)	(-11,7)	(1,0)	(1,0)	(1,0)	(1,0)	(1,0)	(1,0)	(1,0)	(1,0)	(1,0)	(1,0)	(1,0)	(1,0)	(1,0)	(1,0)	
L1D -159>	(1,0)	(1,0)	(1,0)	(1,0)	(1,0)	(1,0)	(1,0)	(1,0)	(1,0)	(1,0)	(1,0)	(1,0)	(1,0)	(1,0)	(1,0)	(1,0)	
L1D -158>	(125,1)	(1,0)	(1,0)	(1,0)	(1,0)	(1,0)	(1,0)	(1,0)	(1,0)	(1,0)	(1,0)	(1,0)	(1,0)	(1,0)	(1,0)	(1,0)	
L1D -157>	(-56,100)	(156,0)	(157,0)	(-84,0)	(-14,0)	(1,0)	(1,0)	(1,0)	(1,0)	(1,0)	(1,0)	(1,0)	(1,0)	(1,0)	(1,0)	(1,0)	
L1D -156>	(-14,99)	(154,2)	(186,1)	(1,0)	(1,0)	(1,0)	(1,0)	(1,0)	(1,0)	(1,0)	(1,0)	(1,0)	(1,0)	(1,0)	(1,0)	(1,0)	
L1D -155>	(157,60)	(156,62)	(154,121)	(-14,30)	(-3,6)	(155,5)	(186,1)	(153,1)	(1,0)	(1,0)	(1,0)	(1,0)	(1,0)	(1,0)	(1,0)	(1,0)	
L1D -154>	(-14,113)	(156,8)	(-25,3)	(155,0)	(154,0)	(1,0)	(1,0)	(1,0)	(1,0)	(1,0)	(1,0)	(1,0)	(1,0)	(1,0)	(1,0)	(1,0)	
L1D -153>	(156,89)	(157,36)	(154,56)	(-14,13)	(0,3)	(153,4)	(1,0)	(1,0)	(1,0)	(1,0)	(1,0)	(1,0)	(1,0)	(1,0)	(1,0)	(1,0)	
L1D -152>	(156,1)	(150,1)	(0,1)	(1,0)	(1,0)	(1,0)	(1,0)	(1,0)	(1,0)	(1,0)	(1,0)	(1,0)	(1,0)	(1,0)	(1,0)	(1,0)	
L1D -151>	(1,1)	(148,1)	(1,0)	(1,0)	(1,0)	(1,0)	(1,0)	(1,0)	(1,0)	(1,0)	(1,0)	(1,0)	(1,0)	(1,0)	(1,0)	(1,0)	
L1D -150>	(0,120)	(-3,1)	(150,1)	(1,0)	(1,0)	(1,0)	(1,0)	(1,0)	(1,0)	(1,0)	(1,0)	(1,0)	(1,0)	(1,0)	(1,0)	(1,0)	
L1D -149>	(1,0)	(1,0)	(1,0)	(1,0)	(1,0)	(1,0)	(1,0)	(1,0)	(1,0)	(1,0)	(1,0)	(1,0)	(1,0)	(1,0)	(1,0)	(1,0)	
L1D -148>	(0,7)	(148,1)	(150,1)	(25,2)	(154,1)	(-84,1)	(1,0)	(1,0)	(1,0)	(1,0)	(1,0)	(1,0)	(1,0)	(1,0)	(1,0)	(1,0)	
L1D -147>	(155,2)	(1,0)	(1,0)	(1,0)	(1,0)	(1,0)	(1,0)	(1,0)	(1,0)	(1,0)	(1,0)	(1,0)	(1,0)	(1,0)	(1,0)	(1,0)	
L1D -146>	(0,122)	(-95,1)	(148,1)	(1,0)	(1,0)	(1,0)	(1,0)	(1,0)	(1,0)	(1,0)	(1,0)	(1,0)	(1,0)	(1,0)	(1,0)	(1,0)	
L1D -145>	(4,1)	(1,0)	(1,0)	(1,0)	(1,0)	(1,0)	(1,0)	(1,0)	(1,0)	(1,0)	(1,0)	(1,0)	(1,0)	(1,0)	(1,0)	(1,0)	
L1D -144>	(130,127)	(0,1)	(1,0)	(1,0)	(1,0)	(1,0)	(1,0)	(1,0)	(1,0)	(1,0)	(1,0)	(1,0)	(1,0)	(1,0)	(1,0)	(1,0)	
L1D -143>	(6,126)	(0,91)	(3,26)	(129,8)	(-17,0)	(42,0)	(1,0)	(1,0)	(1,0)	(1,0)	(1,0)	(1,0)	(1,0)	(1,0)	(1,0)	(1,0)	
L1D -142>	(-3,6)	(1,0)	(1,0)	(1,0)	(1,0)	(1,0)	(1,0)	(1,0)	(1,0)	(1,0)	(1,0)	(1,0)	(1,0)	(1,0)	(1,0)	(1,0)	
L1D -141>	(-1,33)	(1,5)	(141,1)	(6,2)	(1,0)	(1,0)	(1,0)	(1,0)	(1,0)	(1,0)	(1,0)	(1,0)	(1,0)	(1,0)	(1,0)	(1,0)	
L1D -140>	(-1,1)	(1,0)	(1,0)	(1,0)	(1,0)	(1,0)	(1,0)	(1,0)	(1,0)	(1,0)	(1,0)	(1,0)	(1,0)	(1,0)	(1,0)	(1,0)	
L1D -139>	(-1,3)	(1,0)	(1,0)	(1,0)	(1,0)	(1,0)	(1,0)	(1,0)	(1,0)	(1,0)	(1,0)	(1,0)	(1,0)	(1,0)	(1,0)	(1,0)	
L1D -138>	(138,1)	(88,2)	(1,1)	(1,0)	(1,0)	(1,0)	(1,0)	(1,0)	(1,0)	(1,0)	(1,0)	(1,0)	(1,0)	(1,0)	(1,0)	(1,0)	
L1D -137>	(-11,2)	(-95,2)	(1,0)	(1,0)	(1,0)	(1,0)	(1,0)	(1,0)	(1,0)	(1,0)	(1,0)	(1,0)	(1,0)	(1,0)	(1,0)	(1,0)	
L1D -136>	(121,3)	(-44,11)	(-1,42)	(135,1)	(1,0)	(1,0)	(1,0)	(1,0)	(1,0)	(1,0)	(1,0)	(1,0)	(1,0)	(1,0)	(1,0)	(1,0)	
L1D -135>	(-84,1)	(-8,82)	(28,0)	(1,1)	(1,0)	(1,0)	(1,0)	(1,0)	(1,0)	(1,0)	(1,0)	(1,0)	(1,0)	(1,0)	(1,0)	(1,0)	
L1D -134>	(1,8)	(123,70)	(14,67)	(1,0)	(1,0)	(1,0)	(1,0)	(1,0)	(1,0)	(1,0)	(1,0)	(1,0)	(1,0)	(1,0)	(1,0)	(1,0)	
L1D -133>	(133,3)	(134,4)	(14,34)	(-40,20)	(6,13)	(-8,3)	(-45,1)	(1,0)	(1,0)	(1,0)	(1,0)	(1,0)	(1,0)	(1,0)	(1,0)	(1,0)	
L1D -132>	(-51,1)	(1,0)	(1,0)	(1,0)	(1,0)	(1,0)	(1,0)	(1,0)	(1,0)	(1,0)	(1,0)	(1,0)	(1,0)	(1,0)	(1,0)	(1,0)	
L1D -131>	(1,0)	(1,0)	(1,0)	(1,0)	(1,0)	(1,0)	(1,0)	(1,0)	(1,0)	(1,0)	(1,0)	(1,0)	(1,0)	(1,0)	(1,0)	(1,0)	
L1D -130>	(-1,5)	(1,0)	(1,0)	(1,0)	(1,0)	(1,0)	(1,0)	(1,0)	(1,0)	(1,0)	(1,0)	(1,0)	(1,0)	(1,0)	(1,0)	(1,0)	
L1D -129>	(-1,6)	(1,0)	(1,0)	(1,0)	(1,0)	(1,0)	(1,0)	(1,0)	(1,0)	(1,0)	(1,0)	(1,0)	(1,0)	(1,0)	(1,0)	(1,0)	
L1D -128>	(1,107)	(34,47)	(123,3)	(42,1)	(1,0)	(1,0)	(1,0)	(1,0)	(1,0)	(1,0)	(1,0)	(1,0)	(1,0)	(1,0)	(1,0)	(1,0)	
L1D -127>	(-75,3)	(34,125)	(1,0)	(1,0)	(1,0)	(1,0)	(1,0)	(1,0)	(1,0)	(1,0)	(1,0)	(1,0)	(1,0)	(1,0)	(1,0)	(1,0)	
L1D -126>	(125,127)	(0,0)	(1,0)	(1,0)	(1,0)	(1,0)	(1,0)	(1,0)	(1,0)	(1,0)	(1,0)	(1,0)	(1,0)	(1,0)	(1,0)	(1,0)	
L1D -125>	(125,92)	(136,4)	(130,1)	(1,0)	(1,0)	(1,0)	(1,0)	(1,0)	(1,0)	(1,0)	(1,0)	(1,0)	(1,0)	(1,0)	(1,0)	(1,0)	
L1D -124>	(127,89)	(1,0)	(1,0)	(1,0)	(1,0)	(1,0)	(1,0)	(1,0)	(1,0)	(1,0)	(1,0)	(1,0)	(1,0)	(1,0)	(1,0)	(1,0)	
L1D -123>	(1,2)	(-25,1)	(-11,1)	(1,0)	(1,0)	(1,0)	(1,0)	(1,0)	(1,0)	(1,0)	(1,0)	(1,0)	(1,0)	(1,0)	(1,0)	(1,0)	
L1D -122>	(-75,61)	(124,61)	(111,50)	(4,42)	(1,5)	(127,99)	(-8,1)	(1,0)	(1,0)	(1,0)	(1,0)	(1,0)	(1,0)	(1,0)	(1,0)	(1,0)	
L1D -121>	(-1,7)	(1,0)	(1,0)	(1,0)	(1,0)	(1,0)	(1,0)	(1,0)	(1,0)	(1,0)	(1,0)	(1,0)	(1,0)	(1,0)	(1,0)	(1,0)	
L1D -120>	(109,40)	(48,5)	(1,103)	(-1,16)	(11,2)	(-8,2)	(1,0)	(1,0)	(1,0)	(1,0)	(1,0)	(1,0)	(1,0)	(1,0)	(1,0)	(1,0)	
L1D -119>	(1,4)	(-18,117)	(11,1)	(1,0)	(1,0)	(1,0)	(1,0)	(1,0)	(1,0)	(1,0)	(1,0)	(1,0)	(1,0)	(1,0)	(1,0)	(1,0)	
L1D -118>	(109,104)	(18,44)	(-18,4)	(10,0)	(1,0)	(5,0)	(1,0)	(1,0)	(1,0)	(1,0)	(1,0)	(1,0)	(1,0)	(1,0)	(1,0)	(1,0)	
L1D -117>	(68,1)	(1,0)	(1,0)	(1,0)	(1,0)	(1,0)	(1,0)	(1,0)	(1,0)	(1,0)	(1,0)	(1,0)	(1,0)	(1,0)	(1,0)	(1,0)	
L1D -116>	(18,0)	(-22,0)	(105,111)	(1,0)	(1,0)	(1,0)	(1,0)	(1,0)	(1,0)	(1,0)	(1,0)	(1,0)	(1,0)	(1,0)	(1,0)	(1,0)	
L1D -115>	(13,94)	(64,1)	(-65,1)	(1,0)	(1,0)	(1,0)	(1,0)	(1,0)	(1,0)	(1,0)	(1,0)	(1,0)	(1,0)	(1,0)	(1,0)	(1,0)	
L1D -114>	(-1,96)	(-66,2)	(-7,4)	(16,0)	(-3,0)	(1,0)	(1,0)	(1,0)	(1,0)	(1,0)	(1,0)	(1,0)	(1,0)	(1,0)	(1,0)	(1,0)	
L1D -113>	(1,0)	(1,0)	(1,0)	(1,0)	(1,0)	(1,0)	(1,0)	(1,0)	(1,0)	(1,0)	(1,0)	(1,0)	(1,0)	(1,0)	(1,0)	(1,0)	
L1D -112>	(-68,4)	(-5,1)	(112,1)	(84,1)	(68,1)	(-84,1)	(-3,1)	(1,0)	(1,0)	(1,0)	(1,0)	(1,0)	(1,0)	(1,0)	(1,0)	(1,0)	
L1D -111>	(0,1)	(9,12)	(-3,1)	(1,0)	(1,0)	(1,0)	(1,0)	(1,0)	(1,0)	(1,0)	(1,0)	(1,0)	(1,0)	(1,0)	(1,0)	(1,0)	
L1D -110>	(-10,19)	(-1,22)	(33,31)	(32,19)	(35,8)	(42,2)	(55,2)	(105,90)	(110,1)	(-3,1)	(1,7)	(8,14)	(34,4)	(224,0)	(-5,0)	(21,2)	
L1D -109>	(266,104)	(18,0)	(110,0)	(-18,0)	(23,3)	(20,2)	(-1,0)	(-5,0)	(1,0)	(1,0)	(1,0)	(1,0)	(1,0)	(1,0)	(1,0)	(1,0)	
L1D -108>	(109,3)	(1,14)	(2,1)	(6,3)	(118,1)	(0,3)	(-2,1)	(110,99)	(18,1)	(15,0)	(-12,6)	(1,0)	(1,0)	(1,0)	(1,0)	(1,0)	
L1D -107>	(-8,2)	(109,88)	(-11,0)	(5,31)	(31,9)	(8,10)	(-5,12)	(16,2)	(32,0)	(-3,6)	(21,1)	(1,0)	(1,0)	(1,0)	(1,0)	(1,0)	
L1D -106>	(1,7)	(15,84)	(13,81)	(-4,4)	(109,14)	(1,0)	(1,0)	(1,0)	(1,0)	(1,0)	(1,0)	(1,0)	(1,0)	(1,0)	(1,0)	(1,0)	
L1D -105>	(13,2)	(14,1)	(12,88)	(-1,108)	(4,64)	(17,2)	(-4,0)	(105,3)	(1,0)	(1,0)	(1,0)	(1,0)	(1,0)	(1,0)	(1,0)	(1,0)	
L1D -104>	(109,85)	(5,28)	(18,17)	(-2,1)	(52,2)	(4,0)	(-4,0)	(47,0)	(12,0)	(17,0)	(1,0)	(1,0)	(1,0)	(1,0)	(1,0)	(1,0)	
L1D -103>	(-4,2)	(2,113)	(27,1)	(104,0)	(0,0)	(17,9)	(18,26)	(-2,3)	(4,28)	(12,52)	(1,93)	(11,0)	(-157,0)	(52,3)	(6,0)	(-7,0)	
L1D -102>	(-7,1)	(-3,0)	(104,120)	(2,0)	(-8,1)	(-4,0)	(-6,3)	(4,16)	(12,2)	(-5,0)	(-2,1)	(-157,0)	(50,0)	(13,0)	(1,0)	(1,0)	
L1D -101>	(0,0)	(-1,12)	(-2,0)	(41,4)	(189,73)	(2,23)	(103,0)	(-4,0)	(1,0)	(1,0)	(1,0)	(1,0)	(1,0)	(1,0)	(1,0)	(1,0)	
L1D -100>	(38,126)	(-12,3)	(-13,15)	(17,17)	(0,2)	(-4,91)	(7,10)	(2,8)	(91,8)	(-3,1)	(89,95)	(1,0)	(1,0)	(1,0)	(1,0)	(1,0)	
L1D -99>	(38,11)	(0,70)	(-2,8)	(3,2)	(-10,2)	(101,76)	(-4,43)	(98,25)	(-58,26)	(-157,3)	(97,6)	(-7,0)	(-72,0)	(1,0)	(1,0)	(1,0)	
L1D -98>	(0,40)	(22,12)	(88,10)	(20,4)	(-58,101)	(-12,18)	(-3,3)	(2,1)	(23,1)	(1,0)	(1,0)	(1,0)	(1,0)	(1,0)	(1,0)	(1,0)	
L1D -97>	(41,63)	(2,62)	(-10,1)	(87,6)	(1,0)	(1,0)	(1,0)	(1,0)	(1,0)	(1,0)	(1,0)	(1,0)	(1,0)	(1,0)	(1,0)	(1,0)	
L1D -96>	(0,41)	(-58,122)	(-32,1)	(7,1)	(-72,1)	(1,0)	(1,0)	(1,0)	(1,0)	(1,0)	(1,0)	(1,0)	(1,0)	(1,0)	(1,0)	(1,0)	
L1D -95>	(0,8)	(2,121)	(84,1)	(1,98)	(85,3)	(4,5)	(112,1)	(232,1)	(224,1)	(1,0)	(1,0)	(1,0)	(1,0)	(1,0)	(1,0)	(1,0)	
L1D -94>	(-14,2)	(0,1)	(4,27)	(94,0)	(-34,0)	(83,29)	(1,6)	(89,120)	(1,0)	(1,0)	(1,0)	(1,0)	(1,0)	(1,0)	(1,0)	(1,0)	
L1D -93>	(-2,6)	(-1,64)	(45,22)	(27,17)	(2,90)	(0,25)	(99,3)	(95,0)	(1,1)	(1,0)	(1,0)	(1,0)	(1,0)	(1,0)	(1,0)	(1,0)	
L1D -92>	(27,115)	(-72,1)	(1,3)	(88,5)	(0,1)	(-1,2)	(1,0)	(1,0)	(1,0)	(1,0)	(1,0)	(1,0)	(1,0)	(1,0)	(1,0)	(1,0)	
L1D -91>	(-13,0)	(0,0)	(93,4)	(88,0)	(1,1)	(91,65)	(-1,0)	(-12,5)	(-16,1)	(5,6)	(1,0)	(1,0)	(1,0)	(1,0)	(1,0)	(1,0)	
L1D -90>	(18,47)	(91,56)	(-39,2)	(9,122)	(0,4)	(-1,1)	(-34,10)	(90,11)	(88,1)	(81,10)	(-35,1)	(-2,0)	(128,0)	(1,4)	(1,0)	(1,0)	
L1D -89>	(1,41)	(0,48)	(6,8)	(-34,8)	(88,77)	(91,7)	(93,0)	(-35,0)	(-1,5)	(89,1)	(-16,0)	(-39,0)	(1,0)	(1,0)	(1,0)	(1,0)	
L1D -88>	(0,126)	(1,8)	(88,60)	(-1,5)	(90,7)	(-89,0)	(99,0)	(-11,1)	(1,0)	(1,0)	(1,0)	(1,0)	(1,0)	(1,0)	(1,0)	(1,0)	
L1D -87>	(0,6)	(1,106)	(9,2)	(46,1)	(87,43)	(88,15)	(86,0)	(89,6)	(-1,0)	(1,0)	(1,0)	(1,0)	(1,0)	(1,0)	(1,0)	(1,0)	
L1D -86>	(-18,118)	(-20,5)	(-16,9)	(87,0)	(9,0)	(88,9)	(86,2)	(46,0)	(0,0)	(1,0)	(1,0)	(1,0)	(1,0)	(1,0)	(1,0)	(1,0)	
L1D -85>	(-2,0)	(-18,1)	(86,0)	(-20,1)	(87,1)	(1,0)	(-13,64)	(-15,4)	(-25,11)	(95,0)	(-23,18)	(1,0)	(1,0)	(1,0)	(1,0)	(1,0)	
L1D -84>	(224,56)	(-14,57)	(-24,2)	(86,5)	(85,9)	(29,2)	(94,1)	(84,1)	(-18,3)	(110,1)	(0,5)	(219,2)	(204,1)	(1,1)	(67,1)	(-26,1)	
L1D -83>	(-102,41)	(-115,12)	(-107,6)	(-97,1)	(85,5)	(195,2)	(55,1)	(1,0)	(1,0)	(1,0)	(1,0)	(1,0)	(1,0)	(1,0)	(1,0)	(1,0)	
L1D -82>	(25,98)	(1,1)	(-23,42)	(1,0)	(1,0)	(1,0)	(1,0)	(1,0)	(1,0)	(1,0)	(1,0)	(1,0)	(1,0)	(1,0)	(1,0)	(1,0)	
L1D -81>	(79,2)	(-102,0)	(22,1)	(-23,0)	(25,0)	(6,8)	(-22,75)	(1,0)	(1,0)	(1,0)	(1,0)	(1,0)	(1,0)	(1,0)	(1,0)	(1,0)	
L1D -80>	(2,8)	(4,1)	(6,124)	(15,88)	(9,5)	(1,0)	(1,0)	(1,0)	(1,0)	(1,0)	(1,0)	(1,0)	(1,0)	(1,0)	(1,0)	(1,0)	
L1D -79>	(83,1)	(6,0)	(0,2)	(-102,53)	(-115,9)	(-107,11)	(15,22)	(9,110)	(5,31)	(42,40)	(3,11)	(14,7)	(7,1)	(21,2)	(1,0)	(1,0)	
L1D -78>	(-36,16)	(0,9)	(2,1)	(-44,0)	(-2,0)	(31,0)	(77,115)	(40,72)	(14,16)	(16,50)	(15,34)	(-1,18)	(1,10)	(13,6)	(1,0)	(1,0)	
L1D -77>	(2,0)	(1,0)	(-37,0)	(77,5)	(13,9)	(-2,17)	(40,100)	(15,45)	(1,0)	(1,0)	(1,0)	(1,0)	(1,0)	(1,0)	(1,0)	(1,0)	
L1D -76>	(0,1)	(1,8)	(75,73)	(18,0)	(-36,0)	(76,6)	(3,0)	(-38,0)	(46,0)	(-5,2)	(5,1)	(15,2)	(11,5)	(1,0)	(1,0)	(1,0)	
L1D -75>	(-37,0)	(208,0)	(75,3)	(76,5)	(38,0)	(-39,0)	(1,4)	(-4,127)	(10,23)	(12,25)	(37,1)	(1,0)	(1,0)	(1,0)	(1,0)	(1,0)	
L1D -74>	(-18,9)	(73,1)	(76,3)	(-38,0)	(74,0)	(0,4)	(-45,2)	(-2,0)	(46,1)	(30,91)	(12,4)	(-4,8)	(16,2)	(10,2)	(2,1)	(1,5)	
L1D -73>	(111,61)	(4,27)	(15,24)	(75,20)	(73,12)	(72,1)	(19,3)	(74,1)	(-39,2)	(-8,113)	(11,1)	(1,0)	(1,0)	(1,0)	(1,0)	(1,0)	
L1D -72>	(2,3)	(-1,26)	(15,6)	(0,1)	(46,3)	(74,1)	(28,90)	(-7,1)	(14,1)	(-8,17)	(9,82)	(34,50)	(-3,21)	(38,10)	(-6,1)	(7,17)	
L1D -71>	(17,64)	(9,5)	(7,6)	(-10,6)	(70,12)	(-7,2)	(1,0)	(1,0)	(1,0)	(1,0)	(1,0)	(1,0)	(1,0)	(1,0)	(1,0)	(1,0)	
L1D -70>	(1,65)	(30,63)	(26,0)	(70,2)	(-2,2)	(267,0)	(121,1)	(1,0)	(1,0)	(1,0)	(1,0)	(1,0)	(1,0)	(1,0)	(1,0)	(1,0)	
L1D -69>	(109,83)	(18,33)	(2,0)	(10,1)	(1,0)	(1,0)	(1,0)	(1,0)	(1,0)	(1,0)	(1,0)	(1,0)	(1,0)	(1,0)	(1,0)	(1,0)	
L1D -68>	(-4,4)	(-2,1)	(-16,4)	(1,6)	(180,7)	(5,1)	(1,0)	(1,0)	(1,0)	(1,0)	(1,0)	(1,0)	(1,0)	(1,0)	(1,0)	(1,0)	
L1D -67>	(2,32)	(-14,55)	(1,0)	(1,0)	(1,0)	(1,0)	(1,0)	(1,0)	(1,0)	(1,0)	(1,0)	(1,0)	(1,0)	(1,0)	(1,0)	(1,0)	
L1D -66>	(-15,5)	(-34,15)	(-2,6)	(188,4)	(1,2)	(65,1)	(1,0)	(1,0)	(1,0)	(1,0)	(1,0)	(1,0)	(1,0)	(1,0)	(1,0)	(1,0)	
L1D -65>	(-39,1)	(-34,0)	(1,0)	(-44,1)	(2,115)	(-10,25)	(27,22)	(1,0)	(1,0)	(1,0)	(1,0)	(1,0)	(1,0)	(1,0)	(1,0)	(1,0)	
L1D -64>	(5,1)	(27,67)	(-3,0)	(53,0)	(64,14)	(0,0)	(1,1)	(1,0)	(1,0)	(1,0)	(1,0)	(1,0)	(1,0)	(1,0)	(1,0)	(1,0)	
L1D -63>	(406,14)	(20,0)	(5,0)	(2,0)	(63,76)	(45,0)	(-13,7)	(-9,4)	(-12,13)	(-16,1)	(1,1)	(1,0)	(1,0)	(1,0)	(1,0)	(1,0)	
L1D -62>	(51,119)	(52,10)	(11,2)	(-3,4)	(54,3)	(53,2)	(5,21)	(-12,126)	(-9,38)	(63,28)	(-16,6)	(2,3)	(1,0)	(1,0)	(1,0)	(1,0)	
L1D -61>	(3,11)	(-6,65)	(-1,2)	(0,5)	(-8,0)	(-10,14)	(1,0)	(1,0)	(1,0)	(1,0)	(1,0)	(1,0)	(1,0)	(1,0)	(1,0)	(1,0)	
L1D -60>	(0,104)	(2,8)	(10,1)	(1,0)	(1,0)	(1,0)	(1,0)	(1,0)	(1,0)	(1,0)	(1,0)	(1,0)	(1,0)	(1,0)	(1,0)	(1,0)	
L1D -59>	(-22,2)	(1,2)	(-15,1)	(0,2)	(-13,61)	(5,1)	(1,0)	(1,0)	(1,0)	(1,0)	(1,0)	(1,0)	(1,0)	(1,0)	(1,0)	(1,0)	
L1D -58>	(47,3)	(2,57)	(-20,2)	(-14,17)	(-16,112)	(0,1)	(1,42)	(-2,0)	(4,1)	(-18,5)	(1,0)	(1,0)	(1,0)	(1,0)	(1,0)	(1,0)	
L1D -57>	(47,46)	(2,1)	(46,0)	(0,88)	(1,7)	(-1,14)	(-15,0)	(-47,9)	(-25,6)	(-18,11)	(-22,1)	(-20,2)	(1,0)	(1,0)	(1,0)	(1,0)	
L1D -56>	(2,100)	(-1,3)	(58,0)	(3,0)	(1,0)	(1,0)	(1,0)	(1,0)	(1,0)	(1,0)	(1,0)	(1,0)	(1,0)	(1,0)	(1,0)	(1,0)	
L1D -55>	(1,22)	(44,0)	(-1,55)	(55,0)	(266,110)	(1,0)	(1,0)	(1,0)	(1,0)	(1,0)	(1,0)	(1,0)	(1,0)	(1,0)	(1,0)	(1,0)	
L1D -54>	(-2,1)	(-1,113)	(5,0)	(56,75)	(43,0)	(2,0)	(1,6)	(-3,1)	(1,0)	(1,0)	(1,0)	(1,0)	(1,0)	(1,0)	(1,0)	(1,0)	
L1D -53>	(53,0)	(64,127)	(0,58)	(-9,14)	(44,0)	(11,1)	(-2,0)	(1,0)	(1,0)	(1,0)	(1,0)	(1,0)	(1,0)	(1,0)	(1,0)	(1,0)	
L1D -52>	(1,101)	(53,0)	(88,0)	(39,0)	(1,0)	(1,0)	(1,0)	(1,0)	(1,0)	(1,0)	(1,0)	(1,0)	(1,0)	(1,0)	(1,0)	(1,0)	
L1D -51>	(1,35)	(-69,8)	(51,9)	(-30,20)	(-5,14)	(-1,1)	(-44,1)	(1,0)	(1,0)	(1,0)	(1,0)	(1,0)	(1,0)	(1,0)	(1,0)	(1,0)	
L1D -50>	(1,61)	(2,70)	(49,0)	(0,0)	(4,0)	(6,0)	(1,0)	(1,0)	(1,0)	(1,0)	(1,0)	(1,0)	(1,0)	(1,0)	(1,0)	(1,0)	
L1D -49>	(2,5)	(38,19)	(-69,4)	(49,4)	(-6,2)	(-19,4)	(-72,3)	(44,9)	(-5,10)	(0,107)	(53,0)	(1,0)	(1,0)	(1,0)	(1,0)	(1,0)	
L1D -48>	(-2,0)	(-1,97)	(0,1)	(2,3)	(50,0)	(3,4)	(48,0)	(12,0)	(4,0)	(14,0)	(1,0)	(17,0)	(1,0)	(1,0)	(1,0)	(1,0)	
L1D -47>	(1,4)	(20,1)	(52,33)	(43,1)	(49,2)	(2,1)	(1,0)	(1,0)	(1,0)	(1,0)	(1,0)	(1,0)	(1,0)	(1,0)	(1,0)	(1,0)	
L1D -46>	(1,80)	(17,0)	(-2,0)	(45,0)	(47,71)	(56,0)	(48,37)	(113,0)	(1,0)	(1,0)	(1,0)	(1,0)	(1,0)	(1,0)	(1,0)	(1,0)	
L1D -45>	(56,0)	(1,5)	(44,0)	(46,0)	(55,0)	(134,1)	(45,112)	(63,2)	(171,7)	(19,2)	(49,0)	(43,0)	(1,0)	(1,0)	(1,0)	(1,0)	
L1D -44>	(1,2)	(22,13)	(-13,89)	(46,40)	(17,1)	(0,5)	(224,2)	(44,14)	(-37,2)	(110,1)	(42,2)	(-21,78)	(-18,1)	(-180,1)	(-35,21)	(9,1)	
L1D -43>	(9,96)	(43,25)	(81,1)	(47,25)	(109,1)	(45,25)	(6,0)	(52,0)	(-11,1)	(22,0)	(5,1)	(19,0)	(-4,0)	(7,111)	(18,8)	(1,0)	
L1D -42>	(42,76)	(1,9)	(0,0)	(36,0)	(-22,0)	(39,1)	(7,0)	(34,3)	(41,0)	(18,0)	(25,0)	(19,1)	(32,0)	(38,0)	(44,11)	(21,0)	
L1D -41>	(41,47)	(20,1)	(32,1)	(22,1)	(40,6)	(79,5)	(43,85)	(23,1)	(34,1)	(7,7)	(19,1)	(33,1)	(0,7)	(10,2)	(78,2)	(42,1)	
L1D -40>	(1,17)	(40,68)	(39,54)	(166,8)	(70,13)	(33,0)	(68,7)	(19,0)	(66,5)	(2,0)	(-1,0)	(25,0)	(-13,4)	(53,1)	(-23,0)	(0,4)	
L1D -39>	(39,114)	(1,123)	(34,6)	(38,4)	(136,3)	(42,4)	(-6,38)	(41,9)	(12,1)	(33,3)	(-1,16)	(11,2)	(35,7)	(22,3)	(0,20)	(26,3)	
L1D -38>	(44,9)	(38,19)	(10,31)	(35,1)	(37,24)	(15,1)	(0,3)	(40,2)	(41,1)	(12,87)	(-5,54)	(32,1)	(19,1)	(-6,2)	(-1,3)	(-34,55)	
L1D -37>	(-1,5)	(-30,3)	(-44,2)	(16,19)	(-4,12)	(-22,114)	(75,0)	(37,4)	(34,0)	(10,0)	(-3,0)	(9,2)	(35,1)	(-38,25)	(-35,18)	(-25,22)	
L1D -36>	(2,19)	(25,35)	(36,9)	(6,9)	(-1,14)	(43,1)	(-11,1)	(42,1)	(74,3)	(35,1)	(9,1)	(-5,8)	(11,87)	(44,2)	(-4,7)	(-6,2)	
L1D -35>	(1,10)	(35,34)	(79,2)	(9,17)	(-3,11)	(20,13)	(2,2)	(4,2)	(5,12)	(-6,3)	(28,6)	(34,17)	(-2,3)	(-10,1)	(0,2)	(14,90)	
L1D -34>	(38,77)	(0,9)	(34,10)	(-11,2)	(36,0)	(16,0)	(8,0)	(26,0)	(2,0)	(25,0)	(-7,0)	(1,5)	(19,0)	(1,0)	(1,0)	(1,0)	
L1D -33>	(33,11)	(-3,7)	(-6,1)	(3,1)	(2,2)	(1,86)	(-1,1)	(4,2)	(7,1)	(14,0)	(36,0)	(32,0)	(0,2)	(5,0)	(20,0)	(8,0)	
L1D -32>	(17,1)	(32,6)	(-2,8)	(3,85)	(1,4)	(5,14)	(2,26)	(4,38)	(8,30)	(16,1)	(6,10)	(35,1)	(7,12)	(27,1)	(-66,0)	(34,1)	
L1D -31>	(3,93)	(31,7)	(7,60)	(5,13)	(6,15)	(0,3)	(8,1)	(1,3)	(12,25)	(-2,3)	(34,2)	(-6,0)	(2,34)	(32,1)	(15,1)	(4,45)	
L1D -30>	(2,10)	(3,29)	(6,35)	(4,12)	(-40,4)	(30,3)	(8,81)	(-6,1)	(12,0)	(123,3)	(-14,19)	(0,2)	(1,2)	(5,3)	(-7,1)	(-12,0)	
L1D -29>	(29,46)	(12,1)	(3,97)	(1,2)	(16,113)	(5,106)	(4,34)	(2,6)	(9,1)	(17,0)	(-17,0)	(8,4)	(20,2)	(0,21)	(23,0)	(-6,1)	
L1D -28>	(28,17)	(-320,87)	(0,34)	(1,29)	(-13,7)	(4,57)	(-319,86)	(27,1)	(2,48)	(-14,5)	(20,2)	(35,1)	(3,34)	(-40,2)	(-322,6)	(-6,1)	
L1D -27>	(27,121)	(2,1)	(3,3)	(-11,0)	(-8,0)	(-6,0)	(-7,0)	(-29,0)	(1,0)	(-31,0)	(-9,0)	(-40,1)	(-21,0)	(-19,0)	(8,0)	(20,0)	
L1D -26>	(30,1)	(2,26)	(0,12)	(-1,6)	(26,15)	(14,1)	(3,1)	(110,1)	(1,119)	(17,2)	(-2,1)	(-13,1)	(25,1)	(22,1)	(100,2)	(-15,1)	
L1D -25>	(25,21)	(-12,119)	(6,3)	(120,5)	(-84,2)	(8,2)	(0,4)	(-1,5)	(41,1)	(10,1)	(81,0)	(26,81)	(13,0)	(-16,121)	(82,0)	(63,52)	
L1D -24>	(6,0)	(5,0)	(7,72)	(24,5)	(1,0)	(-2,1)	(3,1)	(2,7)	(8,8)	(4,2)	(28,0)	(30,0)	(14,0)	(12,7)	(0,1)	(32,0)	
L1D -23>	(118,93)	(1,3)	(0,19)	(23,49)	(-1,87)	(12,40)	(4,76)	(16,1)	(36,34)	(-4,14)	(40,1)	(24,4)	(7,6)	(-3,5)	(6,10)	(3,7)	
L1D -22>	(22,9)	(50,1)	(0,12)	(-13,33)	(2,2)	(59,0)	(36,5)	(-19,0)	(-6,0)	(103,76)	(-4,0)	(23,0)	(27,38)	(40,0)	(20,0)	(19,1)	
L1D -21>	(-6,10)	(0,2)	(21,8)	(-11,6)	(64,3)	(16,39)	(10,5)	(-5,1)	(9,2)	(-10,100)	(3,2)	(110,5)	(29,3)	(2,59)	(7,2)	(65,19)	
L1D -20>	(13,92)	(-1,5)	(-15,1)	(102,0)	(-5,0)	(16,0)	(40,1)	(20,3)	(3,0)	(44,1)	(21,0)	(-39,0)	(4,0)	(8,0)	(-13,0)	(-35,0)	
L1D -19>	(63,32)	(3,2)	(101,8)	(-1,101)	(19,20)	(-5,44)	(-8,14)	(-13,8)	(15,2)	(1,3)	(5,5)	(0,3)	(8,4)	(13,9)	(-4,2)	(-12,1)	
L1D -18>	(18,96)	(38,2)	(11,5)	(2,14)	(9,15)	(75,1)	(21,1)	(13,1)	(6,2)	(-2,30)	(104,7)	(0,0)	(5,1)	(76,2)	(16,2)	(1,1)	
L1D -17>	(0,124)	(-10,1)	(7,2)	(-15,2)	(17,2)	(-6,0)	(20,0)	(13,0)	(1,0)	(-2,7)	(1,0)	(1,0)	(1,0)	(1,0)	(1,0)	(1,0)	
L1D -16>	(0,117)	(11,1)	(16,3)	(9,9)	(-4,6)	(-15,1)	(36,2)	(102,2)	(8,4)	(21,3)	(43,1)	(3,3)	(18,1)	(-2,9)	(7,0)	(91,0)	
L1D -15>	(0,99)	(8,8)	(-11,91)	(1,10)	(-5,5)	(13,7)	(6,10)	(102,2)	(17,4)	(2,3)	(-8,3)	(19,1)	(16,3)	(11,1)	(15,8)	(7,1)	
L1D -14>	(0,71)	(74,8)	(4,5)	(3,5)	(6,1)	(-3,8)	(15,2)	(12,4)	(2,92)	(-12,0)	(10,6)	(14,5)	(-13,0)	(101,6)	(23,0)	(1,4)	
L1D -13>	(95,1)	(5,61)	(76,46)	(-8,23)	(1,9)	(7,11)	(3,10)	(13,14)	(-12,18)	(17,65)	(-35,2)	(165,24)	(-9,31)	(-3,100)	(72,2)	(28,11)	
L1D -12>	(1,31)	(2,66)	(9,5)	(41,1)	(0,2)	(48,4)	(3,26)	(-8,1)	(-4,79)	(17,18)	(7,1)	(8,16)	(118,18)	(4,12)	(75,1)	(12,7)	
L1D -11>	(-46,22)	(9,0)	(12,0)	(-9,11)	(0,2)	(11,118)	(6,0)	(7,0)	(-38,1)	(2,1)	(4,0)	(171,2)	(16,1)	(15,0)	(1,1)	(-107,11)	
L1D -10>	(14,57)	(2,22)	(1,20)	(9,21)	(0,14)	(12,11)	(13,8)	(23,1)	(75,2)	(8,6)	(3,2)	(6,3)	(4,3)	(10,124)	(-10,10)	(-2,14)	
L1D -9>	(2,21)	(64,6)	(7,4)	(-1,81)	(10,1)	(8,4)	(-7,10)	(1,9)	(-9,13)	(28,28)	(0,41)	(9,77)	(-2,11)	(72,8)	(22,2)	(44,15)	
L1D -8>	(14,66)	(9,0)	(0,0)	(-497,0)	(26,0)	(8,1)	(1,1)	(99,2)	(7,0)	(16,0)	(3,0)	(34,0)	(4,0)	(-4,0)	(5,0)	(129,0)	
L1D -7>	(34,38)	(2,13)	(7,78)	(6,13)	(-1,6)	(27,23)	(14,92)	(0,84)	(8,23)	(-9,77)	(-20,1)	(1,88)	(77,4)	(3,6)	(35,6)	(9,10)	
L1D -6>	(-3,88)	(1,8)	(9,0)	(8,0)	(2,0)	(-2,0)	(-9,0)	(171,0)	(14,0)	(10,0)	(35,0)	(6,11)	(5,0)	(4,0)	(0,0)	(-1,0)	
L1D -5>	(-33,0)	(4,0)	(1,68)	(-11,4)	(0,2)	(2,2)	(3,1)	(9,1)	(-165,0)	(5,36)	(13,1)	(-8,1)	(-6,0)	(7,0)	(-1,0)	(-7,1)	
L1D -4>	(1,114)	(79,8)	(5,2)	(4,30)	(0,17)	(-19,1)	(8,1)	(42,2)	(13,6)	(6,5)	(2,2)	(74,1)	(3,2)	(12,1)	(7,2)	(-1,1)	
L1D -3>	(7,65)	(3,9)	(1,58)	(51,0)	(2,1)	(6,0)	(9,0)	(12,0)	(8,0)	(4,3)	(-9,0)	(-84,0)	(5,0)	(-1,0)	(-2,0)	(-291,0)	
L1D -2>	(0,89)	(3,45)	(2,103)	(1,67)	(-79,1)	(13,10)	(19,16)	(15,6)	(18,1)	(-9,1)	(4,7)	(8,3)	(152,1)	(5,2)	(67,1)	(-2,2)	
L1D -1>	(3,11)	(0,41)	(-8,1)	(-13,1)	(2,20)	(1,82)	(88,1)	(-90,1)	(-4,7)	(-3,38)	(17,1)	(13,2)	(4,5)	(-6,0)	(-340,0)	(-1,1)	
L1D 0>	(0,74)	(1,10)	(9,0)	(-9,0)	(-177,1)	(-353,1)	(-1,0)	(-264,0)	(3,0)	(2,4)	(-7,0)	(-14,0)	(88,9)	(-2,2)	(10,0)	(-91,0)	
L1D 1>	(0,11)	(10,1)	(1,67)	(3,5)	(53,2)	(-1,12)	(7,0)	(5,2)	(-3,1)	(4,4)	(58,0)	(2,7)	(-5,2)	(15,0)	(6,0)	(-2,4)	
L1D 2>	(54,30)	(17,18)	(0,124)	(-6,69)	(-2,30)	(8,5)	(-31,2)	(-1,35)	(-103,1)	(1,69)	(2,80)	(-32,1)	(-33,2)	(7,6)	(-14,8)	(3,5)	
L1D 3>	(-2,26)	(-1,107)	(0,10)	(72,1)	(-31,3)	(5,4)	(-3,7)	(8,6)	(1,48)	(2,4)	(-16,1)	(17,3)	(7,1)	(-4,2)	(4,3)	(3,3)	
L1D 4>	(1,5)	(-1,1)	(6,91)	(11,6)	(-4,7)	(4,16)	(-12,6)	(-32,2)	(88,1)	(-2,3)	(-497,0)	(0,5)	(3,1)	(5,0)	(-3,11)	(8,11)	
L1D 5>	(-32,3)	(10,1)	(86,3)	(49,44)	(-69,10)	(6,126)	(4,3)	(-6,11)	(1,2)	(0,5)	(99,5)	(-18,3)	(-5,18)	(8,8)	(85,2)	(98,3)	
L1D 6>	(-16,23)	(0,60)	(-38,1)	(12,103)	(-5,13)	(-116,106)	(-503,2)	(-32,1)	(2,5)	(-29,1)	(14,2)	(8,4)	(-2,1)	(-7,1)	(11,2)	(1,44)	
L1D 7>	(2,68)	(4,1)	(-4,0)	(-10,1)	(1,8)	(-17,0)	(3,1)	(-5,0)	(9,0)	(-42,0)	(14,0)	(-8,0)	(-9,0)	(8,1)	(-6,0)	(-70,0)	
L1D 8>	(5,13)	(7,11)	(2,9)	(-8,6)	(3,9)	(-32,7)	(0,1)	(6,10)	(4,11)	(1,25)	(-10,1)	(-31,3)	(-28,2)	(-7,2)	(43,8)	(8,105)	
L1D 9>	(-14,14)	(38,22)	(-7,4)	(-9,68)	(-8,5)	(-12,3)	(1,12)	(0,9)	(-10,67)	(3,1)	(123,14)	(72,33)	(-11,12)	(63,4)	(-26,1)	(71,1)	
L1D 10>	(6,126)	(-13,2)	(-9,16)	(-10,38)	(-11,6)	(99,1)	(-1,2)	(-15,4)	(-3,7)	(0,8)	(-118,1)	(-6,1)	(10,1)	(3,3)	(-42,1)	(1,1)	
L1D 11>	(14,3)	(-122,1)	(-20,0)	(7,2)	(-61,2)	(1,108)	(23,2)	(-11,81)	(27,3)	(-90,0)	(-12,0)	(51,5)	(-44,0)	(6,0)	(-118,73)	(3,0)	
L1D 12>	(-18,0)	(-30,0)	(-37,0)	(-35,0)	(13,92)	(-503,2)	(-16,0)	(62,0)	(-12,0)	(-9,0)	(25,0)	(5,2)	(19,0)	(-509,0)	(2,0)	(-174,0)	
L1D 13>	(-8,86)	(-7,1)	(93,1)	(-34,3)	(8,0)	(27,27)	(13,0)	(9,1)	(-29,0)	(6,0)	(2,0)	(5,0)	(-13,0)	(-14,0)	(-1,0)	(1,4)	
L1D 14>	(6,84)	(9,0)	(-499,2)	(-18,0)	(-13,2)	(0,1)	(-17,1)	(-8,0)	(-27,0)	(-14,0)	(2,0)	(27,0)	(-142,0)	(-294,0)	(-5,0)	(-506,0)	
L1D 15>	(-12,16)	(91,11)	(1,96)	(-15,24)	(-2,5)	(16,14)	(5,22)	(-5,38)	(27,21)	(-26,10)	(-8,20)	(-20,8)	(332,1)	(11,95)	(-28,18)	(18,98)	
L1D 16>	(0,15)	(-15,6)	(-12,30)	(-16,3)	(332,27)	(-11,5)	(-14,8)	(27,14)	(10,14)	(-10,22)	(1,46)	(-20,77)	(2,8)	(5,14)	(13,16)	(63,3)	
L1D 17>	(-17,117)	(20,1)	(1,2)	(-18,1)	(-16,9)	(15,1)	(54,10)	(-10,3)	(-5,12)	(-509,1)	(-13,4)	(17,1)	(-2,1)	(22,4)	(-6,0)	(-4,0)	
L1D 18>	(91,16)	(-44,8)	(-7,5)	(-25,1)	(0,6)	(-15,4)	(2,38)	(5,2)	(86,3)	(-9,14)	(-13,30)	(-10,7)	(-35,4)	(-12,4)	(-20,121)	(-8,20)	
L1D 19>	(-17,98)	(-4,1)	(-1,5)	(-9,10)	(19,1)	(6,1)	(-19,7)	(20,1)	(22,0)	(-24,0)	(13,0)	(4,0)	(-6,0)	(-12,0)	(-20,0)	(-13,0)	
L1D 20>	(-20,20)	(-21,36)	(-11,12)	(-36,12)	(-34,17)	(-58,8)	(13,49)	(38,19)	(-25,10)	(-14,80)	(15,7)	(0,13)	(5,7)	(65,1)	(1,5)	(87,4)	
L1D 21>	(21,1)	(-27,11)	(-8,1)	(20,2)	(-16,8)	(-21,6)	(-12,22)	(-24,2)	(-5,1)	(-14,2)	(8,2)	(-25,1)	(11,1)	(13,1)	(-26,65)	(-169,0)	
L1D 22>	(-22,37)	(-2,2)	(-33,9)	(-4,2)	(-62,4)	(10,1)	(-13,106)	(-28,1)	(17,1)	(2,1)	(0,24)	(-29,1)	(-9,4)	(-60,20)	(-5,1)	(1,1)	
L1D 23>	(-23,14)	(-1,127)	(1,58)	(-33,18)	(9,1)	(0,9)	(-61,1)	(15,97)	(13,1)	(-7,1)	(-2,2)	(-16,21)	(12,18)	(-36,3)	(2,1)	(-29,1)	
L1D 24>	(-24,39)	(17,1)	(-173,4)	(0,24)	(8,2)	(-29,3)	(11,99)	(-20,1)	(6,4)	(49,1)	(-44,2)	(-12,3)	(-25,6)	(93,90)	(-172,64)	(-30,12)	
L1D 25>	(-25,29)	(-173,3)	(13,2)	(12,5)	(-26,5)	(9,4)	(-29,1)	(37,28)	(-18,81)	(-16,5)	(0,10)	(7,1)	(-48,3)	(-7,3)	(38,20)	(-40,1)	
L1D 26>	(0,21)	(-27,2)	(-26,31)	(74,2)	(1,2)	(10,1)	(2,68)	(-19,2)	(-17,31)	(8,2)	(37,107)	(-28,1)	(109,1)	(-29,6)	(14,1)	(-33,1)	
L1D 27>	(-27,124)	(6,0)	(-43,8)	(-34,84)	(9,0)	(-28,0)	(-7,0)	(4,10)	(66,1)	(0,0)	(-36,0)	(76,0)	(-41,0)	(-37,0)	(-25,0)	(-48,0)	
L1D 28>	(-28,40)	(2,2)	(107,1)	(0,1)	(-18,2)	(-35,13)	(-21,51)	(-23,0)	(-2,1)	(-347,0)	(-22,0)	(-37,20)	(-176,0)	(-350,0)	(-19,7)	(44,79)	
L1D 29>	(-15,110)	(-29,23)	(-505,3)	(-34,2)	(-46,2)	(195,1)	(-45,1)	(2,2)	(-23,0)	(-28,0)	(-8,9)	(-36,0)	(6,32)	(-39,2)	(0,2)	(89,1)	
L1D 30>	(-13,60)	(93,51)	(-30,4)	(-43,32)	(40,1)	(-21,18)	(-35,126)	(-1,2)	(0,1)	(44,2)	(-25,0)	(1,0)	(1,0)	(1,0)	(1,0)	(1,0)	
L1D 31>	(-31,12)	(0,2)	(-36,5)	(5,1)	(-27,0)	(-4,0)	(6,0)	(-2,0)	(1,0)	(-6,1)	(-32,0)	(47,0)	(-185,0)	(10,1)	(-16,1)	(-21,91)	
L1D 32>	(-32,81)	(2,9)	(-186,1)	(-40,13)	(-19,1)	(12,6)	(10,4)	(-36,22)	(11,2)	(1,1)	(6,2)	(-31,6)	(-33,1)	(-39,4)	(0,14)	(-24,3)	
L1D 33>	(-33,98)	(-34,5)	(6,10)	(0,32)	(1,2)	(38,91)	(-32,2)	(5,6)	(-1,3)	(3,4)	(-37,28)	(-20,1)	(-19,1)	(7,1)	(2,1)	(-187,2)	
L1D 34>	(-34,120)	(1,8)	(-36,53)	(-7,1)	(-38,1)	(0,3)	(-2,1)	(38,4)	(2,2)	(-14,1)	(-33,75)	(26,8)	(-8,1)	(4,39)	(5,1)	(8,0)	
L1D 35>	(4,1)	(-35,9)	(-18,0)	(-31,6)	(-34,67)	(-19,1)	(-3,0)	(7,0)	(6,0)	(0,47)	(-39,0)	(-36,0)	(-21,12)	(-43,7)	(44,1)	(-37,1)	
L1D 36>	(0,18)	(-36,22)	(-43,2)	(-34,41)	(1,1)	(2,1)	(8,0)	(3,2)	(-190,0)	(40,0)	(-6,1)	(-1,0)	(-35,71)	(-19,49)	(4,5)	(-4,0)	
L1D 37>	(-3,1)	(38,14)	(-62,5)	(-45,1)	(-37,3)	(-59,1)	(-2,1)	(-75,19)	(-81,2)	(4,1)	(-65,5)	(-34,6)	(-153,1)	(-67,0)	(-38,4)	(-72,72)	
L1D 38>	(11,95)	(62,1)	(-45,0)	(-5,0)	(-6,0)	(-34,0)	(-2,0)	(-72,0)	(-22,0)	(38,0)	(-36,0)	(-75,0)	(-38,2)	(0,0)	(1,0)	(1,0)	
L1D 39>	(1,20)	(-39,46)	(0,15)	(-5,51)	(10,3)	(-187,4)	(-7,2)	(-72,1)	(-33,4)	(-4,1)	(-40,127)	(-37,0)	(-219,2)	(1,0)	(1,0)	(1,0)	
L1D 40>	(1,3)	(-40,23)	(-13,1)	(37,2)	(-1,3)	(0,2)	(-4,1)	(65,4)	(-43,5)	(2,1)	(-36,4)	(20,0)	(-41,0)	(-25,123)	(-188,0)	(-34,0)	
L1D 41>	(0,71)	(-41,73)	(-7,6)	(1,5)	(2,108)	(-2,1)	(38,16)	(-1,1)	(-11,1)	(-36,113)	(-5,3)	(-3,2)	(-39,0)	(8,16)	(-35,5)	(-189,4)	
L1D 42>	(-42,5)	(-3,1)	(-6,1)	(-190,0)	(-35,9)	(0,38)	(-1,0)	(67,1)	(-26,0)	(-2,0)	(2,31)	(37,80)	(-22,8)	(-41,23)	(-30,5)	(-38,12)	
L1D 43>	(-43,5)	(-4,1)	(-9,1)	(-11,1)	(67,0)	(-191,0)	(-7,1)	(0,83)	(-42,32)	(2,56)	(-34,1)	(-54,6)	(-50,0)	(-44,0)	(7,0)	(1,0)	
L1D 44>	(18,34)	(180,1)	(-45,1)	(-6,4)	(-76,29)	(-44,5)	(0,12)	(-118,1)	(-65,76)	(-63,19)	(-81,0)	(24,3)	(-26,0)	(2,2)	(8,1)	(-2,7)	
L1D 45>	(-44,0)	(11,0)	(0,81)	(18,0)	(-119,6)	(2,0)	(-2,0)	(8,0)	(1,0)	(1,0)	(1,0)	(1,0)	(1,0)	(1,0)	(1,0)	(1,0)	
L1D 46>	(-45,27)	(26,90)	(10,0)	(-1,0)	(2,1)	(-34,0)	(-40,7)	(1,0)	(1,0)	(1,0)	(1,0)	(1,0)	(1,0)	(1,0)	(1,0)	(1,0)	
L1D 47>	(-46,90)	(11,14)	(-25,0)	(83,0)	(195,2)	(55,0)	(5,3)	(15,0)	(151,0)	(81,0)	(-78,1)	(-76,0)	(1,0)	(1,0)	(1,0)	(1,0)	
L1D 48>	(-1,28)	(0,107)	(72,8)	(-11,1)	(15,9)	(14,34)	(-48,79)	(-49,41)	(2,12)	(-43,0)	(-6,37)	(-3,0)	(19,0)	(1,0)	(1,0)	(1,0)	
L1D 49>	(-6,0)	(-11,105)	(-54,0)	(36,0)	(-80,0)	(-5,0)	(0,0)	(-118,0)	(1,0)	(15,0)	(18,0)	(-78,0)	(2,0)	(19,0)	(-3,0)	(35,0)	
L1D 50>	(0,0)	(-48,13)	(-79,0)	(-49,2)	(-81,2)	(-5,76)	(1,0)	(1,0)	(1,0)	(1,0)	(1,0)	(1,0)	(1,0)	(1,0)	(1,0)	(1,0)	
L1D 51>	(-95,3)	(-54,103)	(-50,27)	(-5,16)	(-120,1)	(-81,0)	(-11,8)	(-56,0)	(-51,0)	(0,0)	(1,0)	(1,0)	(1,0)	(1,0)	(1,0)	(1,0)	
L1D 52>	(19,1)	(32,1)	(-6,21)	(20,1)	(-5,76)	(-55,81)	(-30,0)	(22,0)	(34,0)	(0,0)	(-51,0)	(-57,0)	(15,0)	(18,2)	(1,0)	(1,0)	
L1D 53>	(-52,115)	(-56,0)	(-13,0)	(0,0)	(-53,3)	(1,0)	(1,0)	(1,0)	(1,0)	(1,0)	(1,0)	(1,0)	(1,0)	(1,0)	(1,0)	(1,0)	
L1D 54>	(-109,105)	(-11,0)	(162,2)	(-71,2)	(-57,0)	(-56,0)	(1,0)	(1,0)	(1,0)	(1,0)	(1,0)	(1,0)	(1,0)	(1,0)	(1,0)	(1,0)	
L1D 55>	(-54,30)	(-11,17)	(-56,3)	(148,2)	(195,9)	(28,6)	(-76,35)	(-6,1)	(-63,26)	(1,6)	(0,7)	(-5,46)	(-78,5)	(25,5)	(-74,2)	(-84,2)	
L1D 56>	(-10,1)	(-55,16)	(0,114)	(-11,10)	(-57,44)	(-56,96)	(2,13)	(-81,22)	(-51,5)	(-36,0)	(1,0)	(1,0)	(1,0)	(1,0)	(1,0)	(1,0)	
L1D 57>	(-10,86)	(-11,74)	(-56,3)	(-78,81)	(-80,9)	(-82,97)	(-104,22)	(-76,2)	(-65,2)	(-77,17)	(-64,10)	(-37,3)	(1,0)	(1,0)	(1,0)	(1,0)	
L1D 58>	(-11,92)	(-76,55)	(-79,1)	(-57,1)	(-74,4)	(0,2)	(-81,0)	(1,0)	(1,0)	(1,0)	(1,0)	(1,0)	(1,0)	(1,0)	(1,0)	(1,0)	
L1D 59>	(-58,25)	(-63,10)	(-65,103)	(-75,43)	(1,0)	(1,0)	(1,0)	(1,0)	(1,0)	(1,0)	(1,0)	(1,0)	(1,0)	(1,0)	(1,0)	(1,0)	
L1D 60>	(0,2)	(-79,3)	(-62,9)	(1,0)	(1,0)	(1,0)	(1,0)	(1,0)	(1,0)	(1,0)	(1,0)	(1,0)	(1,0)	(1,0)	(1,0)	(1,0)	
L1D 61>	(0,9)	(2,7)	(-5,10)	(1,0)	(1,0)	(1,0)	(1,0)	(1,0)	(1,0)	(1,0)	(1,0)	(1,0)	(1,0)	(1,0)	(1,0)	(1,0)	
L1D 62>	(-68,4)	(-51,9)	(0,2)	(-58,3)	(2,1)	(-15,1)	(-36,5)	(-62,37)	(-57,18)	(-79,10)	(1,2)	(-1,1)	(1,0)	(1,0)	(1,0)	(1,0)	
L1D 63>	(-61,1)	(0,2)	(-71,1)	(-75,23)	(-81,30)	(-72,19)	(-76,97)	(-74,26)	(-37,1)	(-58,3)	(-80,1)	(-63,0)	(-79,3)	(-78,2)	(1,0)	(1,0)	
L1D 64>	(0,8)	(-11,115)	(2,0)	(-42,0)	(-77,14)	(-64,1)	(1,13)	(-73,0)	(1,0)	(1,0)	(1,0)	(1,0)	(1,0)	(1,0)	(1,0)	(1,0)	
L1D 65>	(1,13)	(0,20)	(-99,10)	(-109,4)	(-65,1)	(-63,94)	(-74,1)	(-75,16)	(1,0)	(1,0)	(1,0)	(1,0)	(1,0)	(1,0)	(1,0)	(1,0)	
L1D 66>	(-100,71)	(0,16)	(1,4)	(-62,3)	(2,19)	(114,3)	(1,0)	(1,0)	(1,0)	(1,0)	(1,0)	(1,0)	(1,0)	(1,0)	(1,0)	(1,0)	
L1D 67>	(-110,109)	(1,13)	(0,2)	(2,1)	(-77,6)	(-78,12)	(-95,1)	(-109,3)	(-65,1)	(-75,1)	(137,3)	(1,0)	(1,0)	(1,0)	(1,0)	(1,0)	
L1D 68>	(-62,111)	(-180,1)	(0,2)	(2,1)	(-84,0)	(1,0)	(1,0)	(1,0)	(1,0)	(1,0)	(1,0)	(1,0)	(1,0)	(1,0)	(1,0)	(1,0)	
L1D 69>	(0,8)	(-74,1)	(1,0)	(1,0)	(1,0)	(1,0)	(1,0)	(1,0)	(1,0)	(1,0)	(1,0)	(1,0)	(1,0)	(1,0)	(1,0)	(1,0)	
L1D 70>	(0,113)	(-40,34)	(65,5)	(51,7)	(-77,112)	(-80,15)	(-78,3)	(-72,1)	(1,0)	(1,0)	(1,0)	(1,0)	(1,0)	(1,0)	(1,0)	(1,0)	
L1D 71>	(-13,1)	(2,3)	(-70,98)	(-62,11)	(-63,12)	(-1,14)	(-64,10)	(-80,3)	(3,0)	(-78,1)	(-2,0)	(1,0)	(1,0)	(1,0)	(1,0)	(1,0)	
L1D 72>	(-72,0)	(2,0)	(-1,0)	(-73,1)	(-2,25)	(-53,7)	(-81,3)	(-63,104)	(-75,7)	(-38,2)	(-44,12)	(-65,6)	(-79,1)	(-26,0)	(1,0)	(1,0)	
L1D 73>	(0,50)	(1,18)	(2,41)	(-76,9)	(-72,67)	(-240,99)	(-71,114)	(-74,89)	(-62,53)	(-64,26)	(1,0)	(1,0)	(1,0)	(1,0)	(1,0)	(1,0)	
L1D 74>	(4,5)	(0,18)	(-72,1)	(-74,2)	(-100,2)	(2,23)	(-28,1)	(-78,113)	(-62,14)	(-79,5)	(-38,6)	(-63,8)	(-64,4)	(-75,6)	(1,0)	(1,0)	
L1D 75>	(0,2)	(3,0)	(-74,5)	(2,3)	(-38,0)	(-65,0)	(-57,0)	(-72,2)	(-77,80)	(-78,9)	(-80,4)	(-79,4)	(-63,4)	(1,0)	(1,0)	(1,0)	
L1D 76>	(-103,1)	(-81,114)	(-1,23)	(0,4)	(-30,2)	(-75,2)	(-72,2)	(-243,0)	(-58,0)	(-78,28)	(-80,1)	(-63,2)	(-71,2)	(1,1)	(1,0)	(1,0)	
L1D 77>	(0,3)	(-76,11)	(-244,0)	(-79,9)	(-62,47)	(-37,101)	(1,0)	(1,0)	(1,0)	(1,0)	(1,0)	(1,0)	(1,0)	(1,0)	(1,0)	(1,0)	
L1D 78>	(0,13)	(-77,42)	(-245,19)	(173,0)	(-64,50)	(-63,6)	(-62,108)	(-80,3)	(-79,19)	(-74,7)	(-65,3)	(12,0)	(1,0)	(1,0)	(1,0)	(1,0)	
L1D 79>	(-1,0)	(4,2)	(-71,0)	(-37,110)	(-73,3)	(-58,72)	(-72,24)	(-75,32)	(-63,5)	(-76,7)	(-81,1)	(-80,0)	(-61,1)	(-65,0)	(-38,0)	(-186,1)	
L1D 80>	(-247,11)	(-1,1)	(-62,76)	(-79,21)	(-64,10)	(-74,7)	(1,0)	(1,0)	(1,0)	(1,0)	(1,0)	(1,0)	(1,0)	(1,0)	(1,0)	(1,0)	
L1D 81>	(-79,89)	(-2,6)	(-104,24)	(114,0)	(-75,108)	(-74,33)	(-72,27)	(88,0)	(1,0)	(1,0)	(1,0)	(1,0)	(1,0)	(1,0)	(1,0)	(1,0)	
L1D 82>	(-75,1)	(12,0)	(-108,8)	(-42,0)	(-107,29)	(-76,8)	(-96,0)	(-105,105)	(1,0)	(1,0)	(1,0)	(1,0)	(1,0)	(1,0)	(1,0)	(1,0)	
L1D 83>	(-190,28)	(-74,5)	(88,8)	(-42,1)	(-68,7)	(-28,1)	(11,91)	(1,1)	(0,1)	(1,0)	(1,0)	(1,0)	(1,0)	(1,0)	(1,0)	(1,0)	
L1D 84>	(-110,2)	(5,1)	(135,2)	(1,0)	(1,0)	(1,0)	(1,0)	(1,0)	(1,0)	(1,0)	(1,0)	(1,0)	(1,0)	(1,0)	(1,0)	(1,0)	
L1D 85>	(-105,13)	(-103,105)	(1,12)	(-85,2)	(-92,7)	(-65,0)	(-98,6)	(0,1)	(1,0)	(1,0)	(1,0)	(1,0)	(1,0)	(1,0)	(1,0)	(1,0)	
L1D 86>	(0,76)	(-104,83)	(-109,1)	(1,110)	(-86,8)	(-106,29)	(2,95)	(-2,3)	(-1,1)	(-440,0)	(5,2)	(1,0)	(1,0)	(1,0)	(1,0)	(1,0)	
L1D 87>	(1,112)	(-176,0)	(2,6)	(-86,2)	(0,7)	(-107,0)	(88,2)	(-440,0)	(-351,0)	(1,0)	(1,0)	(1,0)	(1,0)	(1,0)	(1,0)	(1,0)	
L1D 88>	(0,93)	(-265,1)	(-352,1)	(88,20)	(-177,0)	(-1,0)	(-354,0)	(-264,1)	(-355,0)	(2,1)	(-176,1)	(-440,2)	(-88,1)	(1,1)	(-87,0)	(-89,1)	
L1D 89>	(0,24)	(-1,86)	(-5,4)	(5,14)	(88,23)	(-123,1)	(-177,1)	(-353,1)	(-240,0)	(2,1)	(-88,4)	(-89,0)	(-352,0)	(-440,3)	(-264,1)	(-176,0)	
L1D 90>	(0,112)	(-74,2)	(-90,1)	(-85,1)	(-257,0)	(-100,0)	(-103,1)	(-56,0)	(-51,0)	(9,0)	(2,0)	(1,0)	(1,0)	(1,0)	(1,0)	(1,0)	
L1D 91>	(0,0)	(-90,3)	(-109,5)	(-86,103)	(-107,0)	(-103,4)	(-104,13)	(-101,0)	(-52,0)	(-102,0)	(-91,1)	(-258,0)	(-99,1)	(1,0)	(1,0)	(1,0)	
L1D 92>	(-87,38)	(-243,71)	(-102,8)	(-259,9)	(0,4)	(-81,14)	(1,0)	(1,0)	(1,0)	(1,0)	(1,0)	(1,0)	(1,0)	(1,0)	(1,0)	(1,0)	
L1D 93>	(16,77)	(6,1)	(0,6)	(-66,2)	(-93,8)	(-94,1)	(2,0)	(-244,0)	(-260,0)	(-103,0)	(1,0)	(1,0)	(1,0)	(1,0)	(1,0)	(1,0)	
L1D 94>	(-101,71)	(88,54)	(-63,26)	(1,49)	(-108,14)	(-245,65)	(-104,14)	(-261,25)	(-72,2)	(0,1)	(12,1)	(1,0)	(1,0)	(1,0)	(1,0)	(1,0)	
L1D 95>	(0,9)	(-101,95)	(-98,0)	(-246,23)	(-262,1)	(-105,1)	(-72,4)	(-93,0)	(1,0)	(1,0)	(1,0)	(1,0)	(1,0)	(1,0)	(1,0)	(1,0)	
L1D 96>	(-247,28)	(-263,1)	(-138,1)	(1,0)	(1,0)	(1,0)	(1,0)	(1,0)	(1,0)	(1,0)	(1,0)	(1,0)	(1,0)	(1,0)	(1,0)	(1,0)	
L1D 97>	(-63,115)	(-10,0)	(1,0)	(1,0)	(1,0)	(1,0)	(1,0)	(1,0)	(1,0)	(1,0)	(1,0)	(1,0)	(1,0)	(1,0)	(1,0)	(1,0)	
L1D 98>	(-90,95)	(2,6)	(-108,4)	(-102,0)	(1,0)	(1,0)	(1,0)	(1,0)	(1,0)	(1,0)	(1,0)	(1,0)	(1,0)	(1,0)	(1,0)	(1,0)	
L1D 99>	(-1,9)	(6,2)	(-91,70)	(-100,3)	(-106,9)	(-104,5)	(-9,0)	(-86,4)	(1,0)	(1,0)	(1,0)	(1,0)	(1,0)	(1,0)	(1,0)	(1,0)	
L1D 100>	(-100,5)	(-85,108)	(-74,0)	(-107,0)	(-9,0)	(-108,1)	(1,0)	(1,0)	(1,0)	(1,0)	(1,0)	(1,0)	(1,0)	(1,0)	(1,0)	(1,0)	
L1D 101>	(-108,81)	(-107,19)	(2,9)	(0,14)	(-102,9)	(-74,0)	(-101,12)	(-76,10)	(-75,0)	(-73,1)	(1,0)	(1,0)	(1,0)	(1,0)	(1,0)	(1,0)	
L1D 102>	(-106,20)	(-109,1)	(-108,16)	(-105,7)	(1,0)	(1,0)	(1,0)	(1,0)	(1,0)	(1,0)	(1,0)	(1,0)	(1,0)	(1,0)	(1,0)	(1,0)	
L1D 103>	(1,0)	(0,0)	(-85,0)	(-101,16)	(-105,0)	(-92,0)	(88,0)	(-254,0)	(-56,0)	(-102,0)	(-100,0)	(-51,0)	(-81,76)	(1,0)	(1,0)	(1,0)	
L1D 104>	(-1,0)	(-102,1)	(-86,9)	(-110,11)	(-93,2)	(-109,101)	(-106,10)	(0,0)	(-255,0)	(-52,0)	(5,13)	(1,0)	(1,0)	(1,0)	(1,0)	(1,0)	
L1D 105>	(5,90)	(2,0)	(-104,8)	(-107,0)	(0,0)	(-29,0)	(-3,0)	(1,0)	(1,0)	(1,0)	(1,0)	(1,0)	(1,0)	(1,0)	(1,0)	(1,0)	
L1D 106>	(-93,34)	(-257,36)	(-100,58)	(-52,1)	(0,1)	(2,1)	(1,1)	(1,0)	(1,0)	(1,0)	(1,0)	(1,0)	(1,0)	(1,0)	(1,0)	(1,0)	
L1D 107>	(-76,5)	(-258,26)	(-101,27)	(-135,2)	(-100,8)	(-75,1)	(1,0)	(1,0)	(1,0)	(1,0)	(1,0)	(1,0)	(1,0)	(1,0)	(1,0)	(1,0)	
L1D 108>	(-85,47)	(-108,2)	(2,9)	(-72,5)	(-259,54)	(-102,36)	(1,0)	(1,0)	(1,0)	(1,0)	(1,0)	(1,0)	(1,0)	(1,0)	(1,0)	(1,0)	
L1D 109>	(6,49)	(-109,1)	(-98,1)	(-120,0)	(-25,0)	(-114,1)	(-91,111)	(-85,16)	(11,0)	(-103,18)	(-107,4)	(-104,9)	(-106,0)	(-99,1)	(-1,3)	(-62,0)	
L1D 110>	(-110,2)	(114,2)	(140,1)	(-111,3)	(-78,24)	(-114,67)	(-261,5)	(-98,6)	(-120,23)	(-77,1)	(-102,1)	(-136,0)	(-1,0)	(-66,0)	(0,0)	(-104,2)	
L1D 111>	(11,112)	(-262,4)	(-105,5)	(1,0)	(1,0)	(1,0)	(1,0)	(1,0)	(1,0)	(1,0)	(1,0)	(1,0)	(1,0)	(1,0)	(1,0)	(1,0)	
L1D 112>	(-83,1)	(112,1)	(8,1)	(1,0)	(1,0)	(1,0)	(1,0)	(1,0)	(1,0)	(1,0)	(1,0)	(1,0)	(1,0)	(1,0)	(1,0)	(1,0)	
L1D 113>	(-95,6)	(1,0)	(1,0)	(1,0)	(1,0)	(1,0)	(1,0)	(1,0)	(1,0)	(1,0)	(1,0)	(1,0)	(1,0)	(1,0)	(1,0)	(1,0)	
L1D 114>	(-250,5)	(-180,10)	(-44,9)	(-242,1)	(1,0)	(1,0)	(1,0)	(1,0)	(1,0)	(1,0)	(1,0)	(1,0)	(1,0)	(1,0)	(1,0)	(1,0)	
L1D 115>	(-116,14)	(-9,1)	(1,0)	(1,0)	(1,0)	(1,0)	(1,0)	(1,0)	(1,0)	(1,0)	(1,0)	(1,0)	(1,0)	(1,0)	(1,0)	(1,0)	
L1D 116>	(1,0)	(1,0)	(1,0)	(1,0)	(1,0)	(1,0)	(1,0)	(1,0)	(1,0)	(1,0)	(1,0)	(1,0)	(1,0)	(1,0)	(1,0)	(1,0)	
L1D 117>	(1,0)	(1,0)	(1,0)	(1,0)	(1,0)	(1,0)	(1,0)	(1,0)	(1,0)	(1,0)	(1,0)	(1,0)	(1,0)	(1,0)	(1,0)	(1,0)	
L1D 118>	(-110,6)	(-133,9)	(0,25)	(1,17)	(-89,3)	(-98,5)	(-10,0)	(-127,123)	(-72,115)	(-120,1)	(-108,20)	(-95,2)	(-107,5)	(-97,1)	(-94,1)	(-106,2)	
L1D 119>	(1,1)	(-1,1)	(0,1)	(-74,3)	(-28,1)	(1,0)	(1,0)	(1,0)	(1,0)	(1,0)	(1,0)	(1,0)	(1,0)	(1,0)	(1,0)	(1,0)	
L1D 120>	(-72,108)	(0,7)	(-119,0)	(-128,9)	(1,0)	(1,0)	(1,0)	(1,0)	(1,0)	(1,0)	(1,0)	(1,0)	(1,0)	(1,0)	(1,0)	(1,0)	
L1D 121>	(-51,8)	(-120,19)	(-271,1)	(-11,1)	(-95,2)	(1,0)	(1,0)	(1,0)	(1,0)	(1,0)	(1,0)	(1,0)	(1,0)	(1,0)	(1,0)	(1,0)	
L1D 122>	(2,102)	(-197,27)	(0,16)	(1,0)	(1,0)	(1,0)	(1,0)	(1,0)	(1,0)	(1,0)	(1,0)	(1,0)	(1,0)	(1,0)	(1,0)	(1,0)	
L1D 123>	(37,0)	(2,69)	(-273,0)	(16,2)	(0,10)	(-270,0)	(-148,0)	(1,0)	(1,0)	(1,0)	(1,0)	(1,0)	(1,0)	(1,0)	(1,0)	(1,0)	
L1D 124>	(-199,64)	(-271,30)	(1,0)	(1,0)	(1,0)	(1,0)	(1,0)	(1,0)	(1,0)	(1,0)	(1,0)	(1,0)	(1,0)	(1,0)	(1,0)	(1,0)	
L1D 125>	(0,89)	(-49,1)	(-272,2)	(1,0)	(1,0)	(1,0)	(1,0)	(1,0)	(1,0)	(1,0)	(1,0)	(1,0)	(1,0)	(1,0)	(1,0)	(1,0)	
L1D 126>	(0,6)	(-160,1)	(2,116)	(-161,1)	(-273,5)	(1,0)	(1,0)	(1,0)	(1,0)	(1,0)	(1,0)	(1,0)	(1,0)	(1,0)	(1,0)	(1,0)	
L1D 127>	(-202,77)	(-89,24)	(0,6)	(1,10)	(-277,1)	(-274,2)	(2,1)	(-154,3)	(1,0)	(1,0)	(1,0)	(1,0)	(1,0)	(1,0)	(1,0)	(1,0)	
L1D 128>	(-134,33)	(-90,115)	(0,42)	(-275,21)	(37,1)	(-155,5)	(1,0)	(1,0)	(1,0)	(1,0)	(1,0)	(1,0)	(1,0)	(1,0)	(1,0)	(1,0)	
L1D 129>	(0,4)	(-276,0)	(2,72)	(-279,0)	(1,0)	(1,0)	(1,0)	(1,0)	(1,0)	(1,0)	(1,0)	(1,0)	(1,0)	(1,0)	(1,0)	(1,0)	
L1D 130>	(0,94)	(2,34)	(-277,0)	(-83,0)	(6,0)	(1,0)	(1,0)	(1,0)	(1,0)	(1,0)	(1,0)	(1,0)	(1,0)	(1,0)	(1,0)	(1,0)	
L1D 131>	(0,6)	(-119,1)	(1,0)	(1,0)	(1,0)	(1,0)	(1,0)	(1,0)	(1,0)	(1,0)	(1,0)	(1,0)	(1,0)	(1,0)	(1,0)	(1,0)	
L1D 132>	(-279,26)	(2,7)	(0,6)	(1,0)	(1,0)	(1,0)	(1,0)	(1,0)	(1,0)	(1,0)	(1,0)	(1,0)	(1,0)	(1,0)	(1,0)	(1,0)	
L1D 133>	(1,8)	(0,9)	(-280,1)	(-127,2)	(1,0)	(1,0)	(1,0)	(1,0)	(1,0)	(1,0)	(1,0)	(1,0)	(1,0)	(1,0)	(1,0)	(1,0)	
L1D 134>	(-128,4)	(1,7)	(0,12)	(37,80)	(-89,7)	(-281,33)	(1,0)	(1,0)	(1,0)	(1,0)	(1,0)	(1,0)	(1,0)	(1,0)	(1,0)	(1,0)	
L1D 135>	(0,18)	(-90,5)	(-89,9)	(1,2)	(-134,2)	(-135,3)	(-219,1)	(-282,2)	(-16,1)	(-237,1)	(-120,2)	(1,0)	(1,0)	(1,0)	(1,0)	(1,0)	
L1D 136>	(-180,27)	(-90,18)	(-134,1)	(0,4)	(-6,5)	(-283,36)	(1,0)	(1,0)	(1,0)	(1,0)	(1,0)	(1,0)	(1,0)	(1,0)	(1,0)	(1,0)	
L1D 137>	(-148,5)	(-284,20)	(1,0)	(1,0)	(1,0)	(1,0)	(1,0)	(1,0)	(1,0)	(1,0)	(1,0)	(1,0)	(1,0)	(1,0)	(1,0)	(1,0)	
L1D 138>	(0,41)	(-288,4)	(-136,1)	(1,0)	(1,0)	(1,0)	(1,0)	(1,0)	(1,0)	(1,0)	(1,0)	(1,0)	(1,0)	(1,0)	(1,0)	(1,0)	
L1D 139>	(2,1)	(-286,1)	(1,0)	(1,0)	(1,0)	(1,0)	(1,0)	(1,0)	(1,0)	(1,0)	(1,0)	(1,0)	(1,0)	(1,0)	(1,0)	(1,0)	
L1D 140>	(-250,5)	(-180,4)	(-287,37)	(1,0)	(1,0)	(1,0)	(1,0)	(1,0)	(1,0)	(1,0)	(1,0)	(1,0)	(1,0)	(1,0)	(1,0)	(1,0)	
L1D 141>	(-288,121)	(-139,0)	(1,0)	(1,0)	(1,0)	(1,0)	(1,0)	(1,0)	(1,0)	(1,0)	(1,0)	(1,0)	(1,0)	(1,0)	(1,0)	(1,0)	
L1D 142>	(0,1)	(1,0)	(1,0)	(1,0)	(1,0)	(1,0)	(1,0)	(1,0)	(1,0)	(1,0)	(1,0)	(1,0)	(1,0)	(1,0)	(1,0)	(1,0)	
L1D 143>	(1,6)	(0,33)	(1,0)	(1,0)	(1,0)	(1,0)	(1,0)	(1,0)	(1,0)	(1,0)	(1,0)	(1,0)	(1,0)	(1,0)	(1,0)	(1,0)	
L1D 144>	(1,0)	(1,0)	(1,0)	(1,0)	(1,0)	(1,0)	(1,0)	(1,0)	(1,0)	(1,0)	(1,0)	(1,0)	(1,0)	(1,0)	(1,0)	(1,0)	
L1D 145>	(1,0)	(1,0)	(1,0)	(1,0)	(1,0)	(1,0)	(1,0)	(1,0)	(1,0)	(1,0)	(1,0)	(1,0)	(1,0)	(1,0)	(1,0)	(1,0)	
L1D 146>	(-145,1)	(-157,17)	(-141,5)	(1,0)	(1,0)	(1,0)	(1,0)	(1,0)	(1,0)	(1,0)	(1,0)	(1,0)	(1,0)	(1,0)	(1,0)	(1,0)	
L1D 147>	(1,0)	(1,0)	(1,0)	(1,0)	(1,0)	(1,0)	(1,0)	(1,0)	(1,0)	(1,0)	(1,0)	(1,0)	(1,0)	(1,0)	(1,0)	(1,0)	
L1D 148>	(-148,1)	(-232,1)	(-1,2)	(0,1)	(-123,1)	(1,0)	(1,0)	(1,0)	(1,0)	(1,0)	(1,0)	(1,0)	(1,0)	(1,0)	(1,0)	(1,0)	
L1D 149>	(-2,1)	(1,0)	(1,0)	(1,0)	(1,0)	(1,0)	(1,0)	(1,0)	(1,0)	(1,0)	(1,0)	(1,0)	(1,0)	(1,0)	(1,0)	(1,0)	
L1D 150>	(-3,2)	(1,5)	(-34,1)	(0,1)	(1,0)	(1,0)	(1,0)	(1,0)	(1,0)	(1,0)	(1,0)	(1,0)	(1,0)	(1,0)	(1,0)	(1,0)	
[...]
L1D 466>	(1,0)	(1,0)	(1,0)	(1,0)	(1,0)	(1,0)	(1,0)	(1,0)	(1,0)	(1,0)	(1,0)	(1,0)	(1,0)	(1,0)	(1,0)	(1,0)	
L1D 467>	(1,0)	(1,0)	(1,0)	(1,0)	(1,0)	(1,0)	(1,0)	(1,0)	(1,0)	(1,0)	(1,0)	(1,0)	(1,0)	(1,0)	(1,0)	(1,0)	
L1D 468>	(1,0)	(1,0)	(1,0)	(1,0)	(1,0)	(1,0)	(1,0)	(1,0)	(1,0)	(1,0)	(1,0)	(1,0)	(1,0)	(1,0)	(1,0)	(1,0)	
L1D 469>	(1,0)	(1,0)	(1,0)	(1,0)	(1,0)	(1,0)	(1,0)	(1,0)	(1,0)	(1,0)	(1,0)	(1,0)	(1,0)	(1,0)	(1,0)	(1,0)	
L1D 470>	(1,0)	(1,0)	(1,0)	(1,0)	(1,0)	(1,0)	(1,0)	(1,0)	(1,0)	(1,0)	(1,0)	(1,0)	(1,0)	(1,0)	(1,0)	(1,0)	
L1D 471>	(1,0)	(1,0)	(1,0)	(1,0)	(1,0)	(1,0)	(1,0)	(1,0)	(1,0)	(1,0)	(1,0)	(1,0)	(1,0)	(1,0)	(1,0)	(1,0)	
L1D 472>	(1,0)	(1,0)	(1,0)	(1,0)	(1,0)	(1,0)	(1,0)	(1,0)	(1,0)	(1,0)	(1,0)	(1,0)	(1,0)	(1,0)	(1,0)	(1,0)	
L1D 473>	(1,0)	(1,0)	(1,0)	(1,0)	(1,0)	(1,0)	(1,0)	(1,0)	(1,0)	(1,0)	(1,0)	(1,0)	(1,0)	(1,0)	(1,0)	(1,0)	
L1D 474>	(1,0)	(1,0)	(1,0)	(1,0)	(1,0)	(1,0)	(1,0)	(1,0)	(1,0)	(1,0)	(1,0)	(1,0)	(1,0)	(1,0)	(1,0)	(1,0)	
L1D 475>	(1,0)	(1,0)	(1,0)	(1,0)	(1,0)	(1,0)	(1,0)	(1,0)	(1,0)	(1,0)	(1,0)	(1,0)	(1,0)	(1,0)	(1,0)	(1,0)	
L1D 476>	(1,0)	(1,0)	(1,0)	(1,0)	(1,0)	(1,0)	(1,0)	(1,0)	(1,0)	(1,0)	(1,0)	(1,0)	(1,0)	(1,0)	(1,0)	(1,0)	
L1D 477>	(1,0)	(1,0)	(1,0)	(1,0)	(1,0)	(1,0)	(1,0)	(1,0)	(1,0)	(1,0)	(1,0)	(1,0)	(1,0)	(1,0)	(1,0)	(1,0)	
L1D 478>	(1,0)	(1,0)	(1,0)	(1,0)	(1,0)	(1,0)	(1,0)	(1,0)	(1,0)	(1,0)	(1,0)	(1,0)	(1,0)	(1,0)	(1,0)	(1,0)	
L1D 479>	(1,0)	(1,0)	(1,0)	(1,0)	(1,0)	(1,0)	(1,0)	(1,0)	(1,0)	(1,0)	(1,0)	(1,0)	(1,0)	(1,0)	(1,0)	(1,0)	
L1D 480>	(1,0)	(1,0)	(1,0)	(1,0)	(1,0)	(1,0)	(1,0)	(1,0)	(1,0)	(1,0)	(1,0)	(1,0)	(1,0)	(1,0)	(1,0)	(1,0)	
L1D 481>	(6,6)	(1,0)	(1,0)	(1,0)	(1,0)	(1,0)	(1,0)	(1,0)	(1,0)	(1,0)	(1,0)	(1,0)	(1,0)	(1,0)	(1,0)	(1,0)	
L1D 482>	(1,0)	(1,0)	(1,0)	(1,0)	(1,0)	(1,0)	(1,0)	(1,0)	(1,0)	(1,0)	(1,0)	(1,0)	(1,0)	(1,0)	(1,0)	(1,0)	
L1D 483>	(1,0)	(1,0)	(1,0)	(1,0)	(1,0)	(1,0)	(1,0)	(1,0)	(1,0)	(1,0)	(1,0)	(1,0)	(1,0)	(1,0)	(1,0)	(1,0)	
L1D 484>	(1,0)	(1,0)	(1,0)	(1,0)	(1,0)	(1,0)	(1,0)	(1,0)	(1,0)	(1,0)	(1,0)	(1,0)	(1,0)	(1,0)	(1,0)	(1,0)	
L1D 485>	(1,0)	(1,0)	(1,0)	(1,0)	(1,0)	(1,0)	(1,0)	(1,0)	(1,0)	(1,0)	(1,0)	(1,0)	(1,0)	(1,0)	(1,0)	(1,0)	
L1D 486>	(1,0)	(1,0)	(1,0)	(1,0)	(1,0)	(1,0)	(1,0)	(1,0)	(1,0)	(1,0)	(1,0)	(1,0)	(1,0)	(1,0)	(1,0)	(1,0)	
L1D 487>	(1,0)	(1,0)	(1,0)	(1,0)	(1,0)	(1,0)	(1,0)	(1,0)	(1,0)	(1,0)	(1,0)	(1,0)	(1,0)	(1,0)	(1,0)	(1,0)	
L1D 488>	(1,0)	(1,0)	(1,0)	(1,0)	(1,0)	(1,0)	(1,0)	(1,0)	(1,0)	(1,0)	(1,0)	(1,0)	(1,0)	(1,0)	(1,0)	(1,0)	
L1D 489>	(1,0)	(1,0)	(1,0)	(1,0)	(1,0)	(1,0)	(1,0)	(1,0)	(1,0)	(1,0)	(1,0)	(1,0)	(1,0)	(1,0)	(1,0)	(1,0)	
L1D 490>	(1,0)	(1,0)	(1,0)	(1,0)	(1,0)	(1,0)	(1,0)	(1,0)	(1,0)	(1,0)	(1,0)	(1,0)	(1,0)	(1,0)	(1,0)	(1,0)	
L1D 491>	(1,0)	(1,0)	(1,0)	(1,0)	(1,0)	(1,0)	(1,0)	(1,0)	(1,0)	(1,0)	(1,0)	(1,0)	(1,0)	(1,0)	(1,0)	(1,0)	
L1D 492>	(1,0)	(1,0)	(1,0)	(1,0)	(1,0)	(1,0)	(1,0)	(1,0)	(1,0)	(1,0)	(1,0)	(1,0)	(1,0)	(1,0)	(1,0)	(1,0)	
L1D 493>	(1,0)	(1,0)	(1,0)	(1,0)	(1,0)	(1,0)	(1,0)	(1,0)	(1,0)	(1,0)	(1,0)	(1,0)	(1,0)	(1,0)	(1,0)	(1,0)	
L1D 494>	(1,0)	(1,0)	(1,0)	(1,0)	(1,0)	(1,0)	(1,0)	(1,0)	(1,0)	(1,0)	(1,0)	(1,0)	(1,0)	(1,0)	(1,0)	(1,0)	
L1D 495>	(1,0)	(1,0)	(1,0)	(1,0)	(1,0)	(1,0)	(1,0)	(1,0)	(1,0)	(1,0)	(1,0)	(1,0)	(1,0)	(1,0)	(1,0)	(1,0)	
L1D 496>	(1,0)	(1,0)	(1,0)	(1,0)	(1,0)	(1,0)	(1,0)	(1,0)	(1,0)	(1,0)	(1,0)	(1,0)	(1,0)	(1,0)	(1,0)	(1,0)	
L1D 497>	(-2,1)	(1,0)	(1,0)	(1,0)	(1,0)	(1,0)	(1,0)	(1,0)	(1,0)	(1,0)	(1,0)	(1,0)	(1,0)	(1,0)	(1,0)	(1,0)	
L1D 498>	(1,0)	(1,0)	(1,0)	(1,0)	(1,0)	(1,0)	(1,0)	(1,0)	(1,0)	(1,0)	(1,0)	(1,0)	(1,0)	(1,0)	(1,0)	(1,0)	
L1D 499>	(1,0)	(1,0)	(1,0)	(1,0)	(1,0)	(1,0)	(1,0)	(1,0)	(1,0)	(1,0)	(1,0)	(1,0)	(1,0)	(1,0)	(1,0)	(1,0)	
L1D 500>	(1,0)	(1,0)	(1,0)	(1,0)	(1,0)	(1,0)	(1,0)	(1,0)	(1,0)	(1,0)	(1,0)	(1,0)	(1,0)	(1,0)	(1,0)	(1,0)	
L1D 501>	(1,0)	(1,0)	(1,0)	(1,0)	(1,0)	(1,0)	(1,0)	(1,0)	(1,0)	(1,0)	(1,0)	(1,0)	(1,0)	(1,0)	(1,0)	(1,0)	
L1D 502>	(1,0)	(1,0)	(1,0)	(1,0)	(1,0)	(1,0)	(1,0)	(1,0)	(1,0)	(1,0)	(1,0)	(1,0)	(1,0)	(1,0)	(1,0)	(1,0)	
L1D 503>	(1,0)	(1,0)	(1,0)	(1,0)	(1,0)	(1,0)	(1,0)	(1,0)	(1,0)	(1,0)	(1,0)	(1,0)	(1,0)	(1,0)	(1,0)	(1,0)	
L1D 504>	(1,0)	(1,0)	(1,0)	(1,0)	(1,0)	(1,0)	(1,0)	(1,0)	(1,0)	(1,0)	(1,0)	(1,0)	(1,0)	(1,0)	(1,0)	(1,0)	
L1D 505>	(1,0)	(1,0)	(1,0)	(1,0)	(1,0)	(1,0)	(1,0)	(1,0)	(1,0)	(1,0)	(1,0)	(1,0)	(1,0)	(1,0)	(1,0)	(1,0)	
L1D 506>	(1,0)	(1,0)	(1,0)	(1,0)	(1,0)	(1,0)	(1,0)	(1,0)	(1,0)	(1,0)	(1,0)	(1,0)	(1,0)	(1,0)	(1,0)	(1,0)	
L1D 507>	(1,0)	(1,0)	(1,0)	(1,0)	(1,0)	(1,0)	(1,0)	(1,0)	(1,0)	(1,0)	(1,0)	(1,0)	(1,0)	(1,0)	(1,0)	(1,0)	
L1D 508>	(1,0)	(1,0)	(1,0)	(1,0)	(1,0)	(1,0)	(1,0)	(1,0)	(1,0)	(1,0)	(1,0)	(1,0)	(1,0)	(1,0)	(1,0)	(1,0)	
L1D 509>	(1,0)	(1,0)	(1,0)	(1,0)	(1,0)	(1,0)	(1,0)	(1,0)	(1,0)	(1,0)	(1,0)	(1,0)	(1,0)	(1,0)	(1,0)	(1,0)	
L1D 510>	(1,0)	(1,0)	(1,0)	(1,0)	(1,0)	(1,0)	(1,0)	(1,0)	(1,0)	(1,0)	(1,0)	(1,0)	(1,0)	(1,0)	(1,0)	(1,0)	
L1D 511>	(1,0)	(1,0)	(1,0)	(1,0)	(1,0)	(1,0)	(1,0)	(1,0)	(1,0)	(1,0)	(1,0)	(1,0)	(1,0)	(1,0)	(1,0)	(1,0)	

L2C -64>	(1,99)	(-4,6)	(2,248)	(-3,2)	(-2,2)	(11,17)	(-44,1)	(-5,2)	(9,5)	(52,1)	(-12,1)	(3,1)	(-63,12)	(-57,1)	(20,1)	(19,1)	
L2C -63>	(1,196)	(2,44)	(4,0)	(3,0)	(1,0)	(1,0)	(1,0)	(1,0)	(1,0)	(1,0)	(1,0)	(1,0)	(1,0)	(1,0)	(1,0)	(1,0)	
L2C -62>	(2,32)	(1,155)	(-1,141)	(1,0)	(1,0)	(1,0)	(1,0)	(1,0)	(1,0)	(1,0)	(1,0)	(1,0)	(1,0)	(1,0)	(1,0)	(1,0)	
L2C -61>	(1,88)	(-1,24)	(2,142)	(3,1)	(1,0)	(1,0)	(1,0)	(1,0)	(1,0)	(1,0)	(1,0)	(1,0)	(1,0)	(1,0)	(1,0)	(1,0)	
L2C -60>	(1,26)	(-1,18)	(2,19)	(11,1)	(1,0)	(1,0)	(1,0)	(1,0)	(1,0)	(1,0)	(1,0)	(1,0)	(1,0)	(1,0)	(1,0)	(1,0)	
L2C -59>	(1,34)	(-1,25)	(11,1)	(2,1)	(1,0)	(1,0)	(1,0)	(1,0)	(1,0)	(1,0)	(1,0)	(1,0)	(1,0)	(1,0)	(1,0)	(1,0)	
L2C -58>	(1,3)	(11,13)	(2,9)	(43,1)	(1,0)	(1,0)	(1,0)	(1,0)	(1,0)	(1,0)	(1,0)	(1,0)	(1,0)	(1,0)	(1,0)	(1,0)	
L2C -57>	(11,15)	(1,32)	(22,2)	(44,1)	(1,0)	(1,0)	(1,0)	(1,0)	(1,0)	(1,0)	(1,0)	(1,0)	(1,0)	(1,0)	(1,0)	(1,0)	
L2C -56>	(11,149)	(10,1)	(12,2)	(1,47)	(4,4)	(56,3)	(22,3)	(2,14)	(-1,7)	(33,3)	(3,1)	(44,1)	(1,0)	(1,0)	(1,0)	(1,0)	
L2C -55>	(10,9)	(-1,3)	(32,1)	(1,16)	(11,3)	(14,2)	(21,2)	(56,1)	(3,4)	(2,1)	(43,1)	(12,1)	(54,1)	(13,1)	(1,0)	(1,0)	
L2C -54>	(1,6)	(10,1)	(32,1)	(16,3)	(2,1)	(14,6)	(17,3)	(-2,1)	(54,1)	(1,0)	(1,0)	(1,0)	(1,0)	(1,0)	(1,0)	(1,0)	
L2C -53>	(12,2)	(1,7)	(2,1)	(11,1)	(5,1)	(16,1)	(15,1)	(53,5)	(54,1)	(1,0)	(1,0)	(1,0)	(1,0)	(1,0)	(1,0)	(1,0)	
L2C -52>	(1,9)	(11,2)	(14,6)	(12,5)	(13,1)	(52,3)	(-1,3)	(9,1)	(3,2)	(5,1)	(2,1)	(53,1)	(-2,2)	(0,1)	(1,0)	(1,0)	
L2C -51>	(1,4)	(12,1)	(14,1)	(11,2)	(3,6)	(2,2)	(7,2)	(1,0)	(1,0)	(1,0)	(1,0)	(1,0)	(1,0)	(1,0)	(1,0)	(1,0)	
L2C -50>	(2,5)	(1,2)	(3,3)	(5,1)	(1,0)	(1,0)	(1,0)	(1,0)	(1,0)	(1,0)	(1,0)	(1,0)	(1,0)	(1,0)	(1,0)	(1,0)	
L2C -49>	(1,7)	(-1,1)	(32,1)	(2,3)	(11,1)	(5,1)	(8,1)	(6,1)	(1,0)	(1,0)	(1,0)	(1,0)	(1,0)	(1,0)	(1,0)	(1,0)	
L2C -48>	(1,11)	(11,5)	(3,6)	(2,1)	(4,1)	(49,1)	(-10,1)	(1,0)	(1,0)	(1,0)	(1,0)	(1,0)	(1,0)	(1,0)	(1,0)	(1,0)	
L2C -47>	(11,10)	(-1,2)	(3,3)	(2,3)	(1,8)	(6,2)	(5,1)	(1,0)	(1,0)	(1,0)	(1,0)	(1,0)	(1,0)	(1,0)	(1,0)	(1,0)	
L2C -46>	(11,12)	(1,9)	(2,4)	(-11,2)	(3,2)	(6,1)	(5,2)	(-1,2)	(1,0)	(1,0)	(1,0)	(1,0)	(1,0)	(1,0)	(1,0)	(1,0)	
L2C -45>	(11,132)	(22,6)	(4,1)	(1,15)	(2,2)	(3,1)	(-1,3)	(-11,1)	(33,4)	(44,3)	(1,0)	(1,0)	(1,0)	(1,0)	(1,0)	(1,0)	
L2C -44>	(46,1)	(-1,3)	(1,17)	(-12,2)	(3,11)	(44,2)	(43,5)	(31,1)	(2,3)	(11,8)	(10,12)	(21,3)	(-11,3)	(12,1)	(32,2)	(0,1)	
L2C -43>	(-12,1)	(11,5)	(8,1)	(3,2)	(1,38)	(-15,1)	(6,1)	(2,3)	(-1,2)	(37,1)	(38,1)	(40,1)	(-2,1)	(1,0)	(1,0)	(1,0)	
L2C -42>	(12,2)	(54,1)	(11,2)	(1,58)	(4,2)	(44,1)	(2,8)	(3,2)	(5,1)	(10,1)	(1,0)	(1,0)	(1,0)	(1,0)	(1,0)	(1,0)	
L2C -41>	(1,108)	(-1,2)	(36,1)	(2,17)	(3,2)	(9,2)	(10,1)	(14,1)	(7,1)	(11,1)	(41,1)	(1,0)	(1,0)	(1,0)	(1,0)	(1,0)	
L2C -40>	(1,98)	(2,22)	(3,5)	(-1,1)	(33,1)	(29,1)	(28,2)	(39,1)	(17,1)	(1,0)	(1,0)	(1,0)	(1,0)	(1,0)	(1,0)	(1,0)	
L2C -39>	(40,1)	(1,41)	(2,3)	(3,4)	(12,1)	(41,1)	(32,1)	(29,1)	(-2,1)	(1,0)	(1,0)	(1,0)	(1,0)	(1,0)	(1,0)	(1,0)	
L2C -38>	(1,91)	(37,2)	(3,5)	(6,2)	(5,1)	(11,1)	(39,2)	(28,1)	(17,1)	(1,0)	(1,0)	(1,0)	(1,0)	(1,0)	(1,0)	(1,0)	
L2C -37>	(21,1)	(33,1)	(4,5)	(11,3)	(3,19)	(16,2)	(1,44)	(2,18)	(5,5)	(7,2)	(6,1)	(38,1)	(14,4)	(17,1)	(15,1)	(1,0)	
L2C -36>	(37,1)	(11,6)	(14,3)	(39,1)	(3,4)	(1,20)	(16,2)	(2,5)	(13,1)	(24,1)	(5,3)	(23,1)	(-1,1)	(30,1)	(1,0)	(1,0)	
L2C -35>	(11,5)	(10,1)	(2,2)	(1,10)	(-10,1)	(-6,1)	(-1,1)	(3,5)	(5,1)	(8,1)	(38,1)	(32,2)	(31,1)	(36,1)	(1,0)	(1,0)	
L2C -34>	(11,96)	(1,5)	(-1,1)	(14,3)	(-24,1)	(7,1)	(22,4)	(3,5)	(43,1)	(5,2)	(40,1)	(35,5)	(28,1)	(32,1)	(30,2)	(-12,1)	
L2C -33>	(13,2)	(32,2)	(-1,3)	(14,4)	(10,9)	(-11,4)	(1,10)	(-30,1)	(-13,1)	(2,2)	(11,5)	(43,1)	(4,1)	(3,1)	(35,1)	(30,1)	
L2C -32>	(-1,1)	(1,14)	(11,6)	(14,2)	(12,3)	(2,5)	(3,2)	(0,1)	(39,1)	(31,1)	(29,1)	(33,1)	(1,0)	(1,0)	(1,0)	(1,0)	
L2C -31>	(23,1)	(12,2)	(11,1)	(1,10)	(5,2)	(3,1)	(4,1)	(32,1)	(28,1)	(1,0)	(1,0)	(1,0)	(1,0)	(1,0)	(1,0)	(1,0)	
L2C -30>	(28,1)	(7,1)	(1,15)	(30,1)	(3,5)	(17,1)	(2,9)	(-2,1)	(4,1)	(35,1)	(1,0)	(1,0)	(1,0)	(1,0)	(1,0)	(1,0)	
L2C -29>	(2,3)	(1,8)	(11,2)	(3,5)	(40,3)	(-27,1)	(-14,1)	(4,4)	(9,1)	(30,1)	(1,0)	(1,0)	(1,0)	(1,0)	(1,0)	(1,0)	
L2C -28>	(1,12)	(3,4)	(11,3)	(26,1)	(29,1)	(5,1)	(4,1)	(2,3)	(16,1)	(1,0)	(1,0)	(1,0)	(1,0)	(1,0)	(1,0)	(1,0)	
L2C -27>	(1,13)	(2,3)	(11,2)	(13,1)	(7,2)	(4,2)	(3,2)	(-1,2)	(-6,1)	(22,1)	(33,1)	(14,2)	(1,0)	(1,0)	(1,0)	(1,0)	
L2C -26>	(1,18)	(29,1)	(2,1)	(11,1)	(13,1)	(3,1)	(-1,1)	(-19,1)	(7,1)	(-5,1)	(9,1)	(27,1)	(-8,1)	(8,2)	(1,0)	(1,0)	
L2C -25>	(26,2)	(3,4)	(7,4)	(1,5)	(6,2)	(11,8)	(12,2)	(25,1)	(4,1)	(16,1)	(9,1)	(17,1)	(5,2)	(2,2)	(-11,1)	(-6,1)	
L2C -24>	(22,1)	(7,1)	(11,4)	(-10,1)	(1,7)	(43,2)	(6,1)	(-1,1)	(16,5)	(18,2)	(17,1)	(12,1)	(3,14)	(0,1)	(-8,1)	(34,1)	
L2C -23>	(1,9)	(11,92)	(3,2)	(22,5)	(-1,3)	(25,1)	(34,1)	(33,1)	(4,1)	(-11,1)	(15,1)	(14,1)	(16,1)	(1,0)	(1,0)	(1,0)	
L2C -22>	(10,27)	(11,8)	(13,2)	(1,14)	(-11,8)	(12,5)	(-22,1)	(3,2)	(33,1)	(0,1)	(14,4)	(2,3)	(5,1)	(21,2)	(4,2)	(23,4)	
L2C -21>	(21,8)	(1,18)	(3,2)	(-2,3)	(22,5)	(18,1)	(6,2)	(-15,1)	(5,1)	(15,2)	(14,1)	(17,2)	(11,8)	(10,10)	(16,1)	(12,3)	
L2C -20>	(9,6)	(20,3)	(0,3)	(8,43)	(11,6)	(12,4)	(1,20)	(3,2)	(17,1)	(-25,1)	(-13,1)	(21,4)	(14,4)	(10,3)	(13,2)	(-2,3)	
L2C -19>	(1,13)	(-1,1)	(5,1)	(2,3)	(-43,4)	(10,7)	(15,2)	(20,5)	(8,21)	(21,3)	(9,10)	(-2,1)	(16,1)	(18,1)	(11,2)	(13,1)	
L2C -18>	(1,8)	(7,1)	(11,1)	(2,4)	(19,4)	(18,4)	(10,6)	(12,3)	(-1,1)	(8,8)	(9,6)	(3,4)	(15,1)	(6,1)	(20,1)	(17,1)	
L2C -17>	(38,1)	(-20,1)	(1,10)	(2,3)	(-4,1)	(11,2)	(10,4)	(19,1)	(18,2)	(8,6)	(9,2)	(21,1)	(12,1)	(15,1)	(20,1)	(14,1)	
L2C -16>	(17,5)	(12,2)	(9,3)	(1,2)	(11,4)	(-2,1)	(3,1)	(14,1)	(13,3)	(-8,1)	(16,1)	(18,1)	(2,1)	(10,2)	(4,1)	(8,6)	
L2C -15>	(1,8)	(8,4)	(2,3)	(11,9)	(15,3)	(-1,2)	(4,3)	(18,2)	(16,71)	(5,2)	(19,3)	(21,4)	(22,2)	(17,5)	(-7,1)	(13,3)	
L2C -14>	(10,3)	(11,8)	(17,1)	(1,9)	(7,1)	(12,3)	(-1,4)	(6,3)	(14,7)	(2,23)	(13,2)	(16,5)	(0,2)	(15,13)	(21,3)	(4,2)	
L2C -13>	(3,5)	(1,105)	(12,4)	(21,2)	(7,2)	(17,3)	(11,8)	(13,12)	(8,3)	(4,1)	(0,3)	(2,9)	(43,1)	(14,123)	(10,10)	(24,1)	
L2C -12>	(6,1)	(11,12)	(-1,1)	(12,3)	(5,1)	(1,178)	(22,0)	(3,13)	(0,3)	(13,0)	(10,1)	(4,0)	(-51,0)	(-11,0)	(2,7)	(9,3)	
L2C -11>	(-1,1)	(10,2)	(-11,2)	(-43,0)	(1,130)	(20,0)	(3,4)	(-12,0)	(2,19)	(8,0)	(6,5)	(5,0)	(11,2)	(4,0)	(14,2)	(42,0)	
L2C -10>	(-2,1)	(2,21)	(1,198)	(11,1)	(-4,1)	(3,7)	(4,1)	(5,4)	(6,6)	(9,1)	(7,2)	(14,1)	(-13,0)	(8,1)	(0,1)	(-16,0)	
L2C -9>	(2,23)	(3,16)	(6,13)	(10,1)	(-4,1)	(-13,2)	(1,187)	(11,0)	(-36,0)	(21,0)	(4,3)	(8,1)	(9,7)	(5,6)	(0,2)	(7,1)	
L2C -8>	(9,37)	(1,192)	(2,34)	(3,19)	(5,5)	(33,1)	(4,5)	(6,7)	(-48,0)	(-1,3)	(-3,2)	(7,4)	(10,7)	(-11,0)	(-10,0)	(8,4)	
L2C -7>	(0,5)	(8,12)	(4,1)	(2,33)	(1,201)	(5,3)	(11,1)	(-1,3)	(3,20)	(33,1)	(7,4)	(9,40)	(-15,1)	(6,21)	(-14,1)	(-8,1)	
L2C -6>	(0,1)	(8,53)	(1,164)	(3,30)	(-28,1)	(-5,0)	(-4,0)	(11,0)	(2,42)	(-1,0)	(-2,0)	(6,12)	(5,5)	(9,13)	(4,0)	(-12,0)	
L2C -5>	(1,137)	(12,0)	(3,14)	(5,26)	(2,25)	(10,1)	(8,11)	(-1,1)	(6,16)	(4,4)	(0,6)	(31,0)	(-2,3)	(7,16)	(-3,1)	(11,0)	
L2C -4>	(1,129)	(2,89)	(0,5)	(6,3)	(5,13)	(40,0)	(3,63)	(7,0)	(-2,3)	(4,8)	(-1,3)	(-11,0)	(-3,3)	(11,1)	(10,10)	(-4,1)	
L2C -3>	(1,131)	(2,48)	(4,13)	(0,7)	(8,0)	(-1,11)	(11,2)	(10,0)	(5,5)	(-3,1)	(-11,0)	(3,13)	(-2,2)	(6,2)	(19,0)	(7,1)	
L2C -2>	(1,170)	(3,31)	(-1,4)	(13,1)	(19,1)	(0,13)	(2,50)	(4,31)	(5,2)	(11,1)	(-2,8)	(-3,7)	(54,2)	(6,2)	(18,1)	(10,1)	
L2C -1>	(2,189)	(0,5)	(7,1)	(3,2)	(20,0)	(53,0)	(-62,3)	(1,2)	(-1,0)	(-59,0)	(4,0)	(-10,0)	(-61,3)	(-8,0)	(-2,0)	(-5,0)	
L2C 0>	(0,207)	(1,27)	(-11,1)	(-41,1)	(-13,2)	(3,3)	(-19,1)	(2,5)	(5,2)	(-27,2)	(-3,2)	(-1,13)	(-2,3)	(-4,1)	(54,2)	(12,2)	
L2C 1>	(1,243)	(-3,3)	(-63,2)	(-7,2)	(-9,1)	(-12,5)	(-10,3)	(2,74)	(10,1)	(3,2)	(-6,1)	(-1,1)	(-2,1)	(4,3)	(-62,1)	(5,1)	
L2C 2>	(2,5)	(4,2)	(-3,1)	(12,2)	(-1,249)	(1,250)	(5,1)	(-7,1)	(-8,1)	(-5,1)	(6,1)	(8,1)	(-14,0)	(-2,1)	(3,1)	(-4,1)	
L2C 3>	(-1,2)	(2,35)	(11,1)	(1,130)	(-8,3)	(16,1)	(-7,1)	(-4,4)	(3,6)	(-6,4)	(-62,1)	(-2,5)	(-3,6)	(-12,1)	(-11,2)	(-9,0)	
L2C 4>	(1,141)	(-1,9)	(9,7)	(-62,2)	(-11,6)	(2,10)	(-7,3)	(3,5)	(-4,1)	(4,2)	(-2,5)	(-63,2)	(-6,5)	(11,4)	(-5,5)	(-8,1)	
L2C 5>	(1,163)	(-4,4)	(2,29)	(0,1)	(-1,2)	(-8,13)	(4,2)	(-2,4)	(-5,17)	(3,8)	(-11,2)	(55,1)	(-7,5)	(-63,8)	(-10,1)	(-6,3)	
L2C 6>	(-8,8)	(1,237)	(-5,4)	(-6,26)	(-10,1)	(3,9)	(-3,4)	(-2,7)	(-12,15)	(2,71)	(-7,4)	(-9,12)	(-4,12)	(4,5)	(-1,16)	(-11,5)	
L2C 7>	(0,1)	(1,168)	(-1,89)	(-7,9)	(2,62)	(-2,10)	(-9,10)	(-10,11)	(7,4)	(3,15)	(9,5)	(4,9)	(-12,10)	(-4,5)	(-5,11)	(6,6)	
L2C 8>	(-1,3)	(-9,4)	(1,146)	(-12,6)	(-5,1)	(-57,2)	(11,1)	(0,2)	(6,1)	(4,4)	(3,11)	(-11,7)	(2,2)	(-13,5)	(17,1)	(-7,1)	
L2C 9>	(-1,3)	(1,169)	(-21,1)	(0,2)	(-8,2)	(11,32)	(-6,1)	(-13,4)	(-9,7)	(5,2)	(3,12)	(-10,5)	(-12,34)	(-35,1)	(2,38)	(-11,9)	
L2C 10>	(1,202)	(11,51)	(2,13)	(-11,21)	(-6,4)	(-22,5)	(-1,5)	(3,4)	(20,1)	(4,8)	(-12,42)	(-10,6)	(-13,12)	(-16,4)	(-14,16)	(-4,4)	
L2C 11>	(-1,2)	(11,223)	(1,24)	(-57,5)	(-56,15)	(-12,17)	(-23,18)	(-45,26)	(0,2)	(-34,22)	(-43,7)	(-31,1)	(22,6)	(2,2)	(-22,2)	(-33,3)	
L2C 12>	(1,69)	(3,9)	(7,2)	(5,6)	(11,4)	(-5,2)	(-1,3)	(-13,7)	(-12,26)	(0,5)	(-22,2)	(2,16)	(-41,1)	(13,2)	(4,2)	(14,1)	
L2C 13>	(11,2)	(1,104)	(-3,3)	(3,20)	(-12,14)	(-14,4)	(0,12)	(2,23)	(4,5)	(-13,6)	(-56,1)	(-25,1)	(5,5)	(-28,2)	(-23,1)	(-7,1)	
L2C 14>	(1,115)	(5,64)	(0,4)	(-14,5)	(-4,4)	(2,45)	(3,45)	(4,31)	(13,2)	(-3,10)	(-37,3)	(-55,2)	(-56,8)	(-36,6)	(-33,2)	(-13,2)	
L2C 15>	(-14,2)	(2,18)	(1,70)	(0,2)	(-37,3)	(7,2)	(-57,1)	(-4,1)	(4,5)	(-15,2)	(-12,2)	(5,2)	(-13,3)	(6,2)	(-18,1)	(3,6)	
L2C 16>	(-25,2)	(1,82)	(-26,5)	(-32,1)	(-1,2)	(2,18)	(-37,2)	(-56,2)	(-52,1)	(-20,1)	(-34,1)	(-57,1)	(3,9)	(4,28)	(5,13)	(-4,1)	
L2C 17>	(3,4)	(-16,1)	(1,53)	(11,2)	(2,7)	(-5,2)	(-15,2)	(-2,2)	(-12,1)	(-14,2)	(4,2)	(-1,2)	(1,0)	(1,0)	(1,0)	(1,0)	
L2C 18>	(1,30)	(-21,2)	(2,8)	(19,1)	(11,1)	(-24,1)	(4,2)	(6,1)	(-15,1)	(-1,3)	(-19,2)	(-3,7)	(5,1)	(-8,1)	(-9,1)	(-18,3)	
L2C 19>	(-9,1)	(2,8)	(-21,1)	(-34,1)	(-16,1)	(1,22)	(-55,1)	(-33,2)	(-1,3)	(-5,2)	(11,3)	(-8,1)	(4,3)	(0,3)	(-25,1)	(-28,1)	
L2C 20>	(-19,1)	(-29,1)	(1,11)	(0,3)	(-31,2)	(-45,1)	(11,14)	(2,3)	(-23,1)	(-27,1)	(-21,2)	(-1,1)	(-11,3)	(3,1)	(-25,1)	(1,0)	
L2C 21>	(-22,3)	(-12,1)	(-23,1)	(3,1)	(1,14)	(-57,1)	(11,8)	(-1,2)	(4,1)	(2,1)	(22,1)	(-11,4)	(-7,2)	(-21,10)	(-24,9)	(-19,1)	
L2C 22>	(-55,3)	(-33,5)	(0,3)	(1,13)	(-23,5)	(-13,1)	(11,32)	(-44,4)	(-35,2)	(-45,7)	(-56,4)	(-20,2)	(-11,3)	(-34,5)	(-12,1)	(-26,1)	
L2C 23>	(14,1)	(-12,1)	(-1,4)	(2,1)	(1,6)	(-11,2)	(-22,1)	(-14,1)	(-34,1)	(1,0)	(1,0)	(1,0)	(1,0)	(1,0)	(1,0)	(1,0)	
L2C 24>	(1,7)	(-15,1)	(11,2)	(-13,1)	(-12,1)	(-28,1)	(-16,1)	(-11,1)	(-1,2)	(-9,1)	(6,1)	(-25,1)	(1,0)	(1,0)	(1,0)	(1,0)	
L2C 25>	(1,4)	(-24,1)	(-18,1)	(-8,1)	(0,1)	(-25,3)	(-27,1)	(1,0)	(1,0)	(1,0)	(1,0)	(1,0)	(1,0)	(1,0)	(1,0)	(1,0)	
L2C 26>	(1,6)	(-25,3)	(3,1)	(-15,1)	(-1,1)	(1,0)	(1,0)	(1,0)	(1,0)	(1,0)	(1,0)	(1,0)	(1,0)	(1,0)	(1,0)	(1,0)	
L2C 27>	(2,1)	(-26,2)	(1,1)	(-12,1)	(1,0)	(1,0)	(1,0)	(1,0)	(1,0)	(1,0)	(1,0)	(1,0)	(1,0)	(1,0)	(1,0)	(1,0)	
L2C 28>	(-30,2)	(-1,1)	(-13,1)	(1,4)	(1,0)	(1,0)	(1,0)	(1,0)	(1,0)	(1,0)	(1,0)	(1,0)	(1,0)	(1,0)	(1,0)	(1,0)	
L2C 29>	(8,1)	(24,1)	(-31,1)	(11,1)	(-22,1)	(22,1)	(-13,1)	(1,4)	(5,1)	(-4,1)	(1,0)	(1,0)	(1,0)	(1,0)	(1,0)	(1,0)	
L2C 30>	(-1,1)	(2,1)	(1,3)	(-2,2)	(1,0)	(1,0)	(1,0)	(1,0)	(1,0)	(1,0)	(1,0)	(1,0)	(1,0)	(1,0)	(1,0)	(1,0)	
L2C 31>	(7,1)	(-56,1)	(1,3)	(1,0)	(1,0)	(1,0)	(1,0)	(1,0)	(1,0)	(1,0)	(1,0)	(1,0)	(1,0)	(1,0)	(1,0)	(1,0)	
L2C 32>	(11,3)	(1,4)	(-11,1)	(-51,1)	(21,1)	(-1,2)	(22,1)	(-36,1)	(10,1)	(4,1)	(3,1)	(1,0)	(1,0)	(1,0)	(1,0)	(1,0)	
L2C 33>	(2,1)	(-38,1)	(-53,1)	(1,10)	(-24,1)	(-13,1)	(-34,1)	(11,9)	(-56,3)	(-45,4)	(-1,1)	(-26,1)	(-16,1)	(1,0)	(1,0)	(1,0)	
L2C 34>	(2,2)	(3,1)	(1,3)	(-28,1)	(-23,1)	(1,0)	(1,0)	(1,0)	(1,0)	(1,0)	(1,0)	(1,0)	(1,0)	(1,0)	(1,0)	(1,0)	
L2C 35>	(6,1)	(-52,1)	(11,1)	(1,5)	(4,3)	(-3,1)	(1,0)	(1,0)	(1,0)	(1,0)	(1,0)	(1,0)	(1,0)	(1,0)	(1,0)	(1,0)	
L2C 36>	(1,3)	(4,1)	(0,1)	(-5,1)	(-33,1)	(1,0)	(1,0)	(1,0)	(1,0)	(1,0)	(1,0)	(1,0)	(1,0)	(1,0)	(1,0)	(1,0)	
L2C 37>	(1,6)	(-38,3)	(-28,1)	(1,0)	(1,0)	(1,0)	(1,0)	(1,0)	(1,0)	(1,0)	(1,0)	(1,0)	(1,0)	(1,0)	(1,0)	(1,0)	
L2C 38>	(-6,1)	(5,2)	(1,1)	(1,0)	(1,0)	(1,0)	(1,0)	(1,0)	(1,0)	(1,0)	(1,0)	(1,0)	(1,0)	(1,0)	(1,0)	(1,0)	
L2C 39>	(2,1)	(1,4)	(-9,1)	(1,0)	(1,0)	(1,0)	(1,0)	(1,0)	(1,0)	(1,0)	(1,0)	(1,0)	(1,0)	(1,0)	(1,0)	(1,0)	
L2C 40>	(1,3)	(0,1)	(11,4)	(-29,1)	(-45,1)	(-63,1)	(-43,1)	(1,0)	(1,0)	(1,0)	(1,0)	(1,0)	(1,0)	(1,0)	(1,0)	(1,0)	
L2C 41>	(0,2)	(1,1)	(-22,1)	(-11,1)	(-10,1)	(-44,1)	(-41,1)	(1,0)	(1,0)	(1,0)	(1,0)	(1,0)	(1,0)	(1,0)	(1,0)	(1,0)	
L2C 42>	(-44,1)	(1,2)	(-10,1)	(1,0)	(1,0)	(1,0)	(1,0)	(1,0)	(1,0)	(1,0)	(1,0)	(1,0)	(1,0)	(1,0)	(1,0)	(1,0)	
L2C 43>	(-1,2)	(1,5)	(11,3)	(-33,1)	(-12,1)	(-35,1)	(-32,1)	(-44,1)	(-42,1)	(1,0)	(1,0)	(1,0)	(1,0)	(1,0)	(1,0)	(1,0)	
L2C 44>	(-44,3)	(-1,3)	(-11,1)	(11,2)	(-33,1)	(1,0)	(1,0)	(1,0)	(1,0)	(1,0)	(1,0)	(1,0)	(1,0)	(1,0)	(1,0)	(1,0)	
L2C 45>	(-44,1)	(-25,1)	(1,0)	(1,0)	(1,0)	(1,0)	(1,0)	(1,0)	(1,0)	(1,0)	(1,0)	(1,0)	(1,0)	(1,0)	(1,0)	(1,0)	
L2C 46>	(1,3)	(0,1)	(1,0)	(1,0)	(1,0)	(1,0)	(1,0)	(1,0)	(1,0)	(1,0)	(1,0)	(1,0)	(1,0)	(1,0)	(1,0)	(1,0)	
L2C 47>	(1,0)	(1,0)	(1,0)	(1,0)	(1,0)	(1,0)	(1,0)	(1,0)	(1,0)	(1,0)	(1,0)	(1,0)	(1,0)	(1,0)	(1,0)	(1,0)	
L2C 48>	(1,1)	(0,1)	(1,0)	(1,0)	(1,0)	(1,0)	(1,0)	(1,0)	(1,0)	(1,0)	(1,0)	(1,0)	(1,0)	(1,0)	(1,0)	(1,0)	
L2C 49>	(1,1)	(-52,1)	(-55,2)	(1,0)	(1,0)	(1,0)	(1,0)	(1,0)	(1,0)	(1,0)	(1,0)	(1,0)	(1,0)	(1,0)	(1,0)	(1,0)	
L2C 50>	(1,1)	(1,0)	(1,0)	(1,0)	(1,0)	(1,0)	(1,0)	(1,0)	(1,0)	(1,0)	(1,0)	(1,0)	(1,0)	(1,0)	(1,0)	(1,0)	
L2C 51>	(1,0)	(1,0)	(1,0)	(1,0)	(1,0)	(1,0)	(1,0)	(1,0)	(1,0)	(1,0)	(1,0)	(1,0)	(1,0)	(1,0)	(1,0)	(1,0)	
L2C 52>	(1,3)	(0,2)	(-55,1)	(-52,1)	(-56,1)	(-33,1)	(-22,1)	(1,0)	(1,0)	(1,0)	(1,0)	(1,0)	(1,0)	(1,0)	(1,0)	(1,0)	
L2C 53>	(0,2)	(-53,2)	(-52,2)	(-56,1)	(-54,1)	(1,0)	(1,0)	(1,0)	(1,0)	(1,0)	(1,0)	(1,0)	(1,0)	(1,0)	(1,0)	(1,0)	
L2C 54>	(-13,1)	(-1,2)	(-11,1)	(0,2)	(-56,1)	(-54,2)	(-52,2)	(1,0)	(1,0)	(1,0)	(1,0)	(1,0)	(1,0)	(1,0)	(1,0)	(1,0)	
L2C 55>	(1,2)	(-44,1)	(-3,1)	(1,0)	(1,0)	(1,0)	(1,0)	(1,0)	(1,0)	(1,0)	(1,0)	(1,0)	(1,0)	(1,0)	(1,0)	(1,0)	
L2C 56>	(-1,2)	(-56,1)	(-52,2)	(1,0)	(1,0)	(1,0)	(1,0)	(1,0)	(1,0)	(1,0)	(1,0)	(1,0)	(1,0)	(1,0)	(1,0)	(1,0)	
L2C 57>	(1,0)	(1,0)	(1,0)	(1,0)	(1,0)	(1,0)	(1,0)	(1,0)	(1,0)	(1,0)	(1,0)	(1,0)	(1,0)	(1,0)	(1,0)	(1,0)	
L2C 58>	(1,0)	(1,0)	(1,0)	(1,0)	(1,0)	(1,0)	(1,0)	(1,0)	(1,0)	(1,0)	(1,0)	(1,0)	(1,0)	(1,0)	(1,0)	(1,0)	
L2C 59>	(1,0)	(1,0)	(1,0)	(1,0)	(1,0)	(1,0)	(1,0)	(1,0)	(1,0)	(1,0)	(1,0)	(1,0)	(1,0)	(1,0)	(1,0)	(1,0)	
L2C 60>	(1,0)	(1,0)	(1,0)	(1,0)	(1,0)	(1,0)	(1,0)	(1,0)	(1,0)	(1,0)	(1,0)	(1,0)	(1,0)	(1,0)	(1,0)	(1,0)	
L2C 61>	(-60,1)	(1,0)	(1,0)	(1,0)	(1,0)	(1,0)	(1,0)	(1,0)	(1,0)	(1,0)	(1,0)	(1,0)	(1,0)	(1,0)	(1,0)	(1,0)	
L2C 62>	(1,0)	(1,0)	(1,0)	(1,0)	(1,0)	(1,0)	(1,0)	(1,0)	(1,0)	(1,0)	(1,0)	(1,0)	(1,0)	(1,0)	(1,0)	(1,0)	
L2C 63>	(1,0)	(1,0)	(1,0)	(1,0)	(1,0)	(1,0)	(1,0)	(1,0)	(1,0)	(1,0)	(1,0)	(1,0)	(1,0)	(1,0)	(1,0)	(1,0)	

DRAM Statistics
 CHANNEL 0
 RQ ROW_BUFFER_HIT:      35842  ROW_BUFFER_MISS:      11086
 DBUS_CONGESTED:      27904
 WQ ROW_BUFFER_HIT:          0  ROW_BUFFER_MISS:          0  FULL:          0

 AVG_CONGESTED_CYCLE: 6
