
*** ChampSim Multicore Out-of-Order Simulator ***

Warmup Instructions: 1000000
Simulation Instructions: 10000000
Number of CPUs: 4
LLC sets: 8192
LLC ways: 16
Off-chip DRAM Size: 4096 MB Channels: 1 Width: 64-bit Data Rate: 3200 MT/s

CPU 0 runs /home/virtualcse/Data-Prefetching/ChampSim/dpc3_traces/648.exchange2_s-1699B.champsimtrace.xz
CPU 1 runs /home/virtualcse/Data-Prefetching/ChampSim/dpc3_traces/631.deepsjeng_s-928B.champsimtrace.xz
CPU 2 runs /home/virtualcse/Data-Prefetching/ChampSim/dpc3_traces/607.cactuBSSN_s-2421B.champsimtrace.xz
CPU 3 runs /home/virtualcse/Data-Prefetching/ChampSim/dpc3_traces/620.omnetpp_s-141B.champsimtrace.xz
Ultra pref. initializing...
Ultra pref. initialized
Ultra pref. initializing...
Ultra pref. initialized
Ultra pref. initializing...
Ultra pref. initialized
Ultra pref. initializing...
Ultra pref. initialized
Ultra pref. initializing...
Ultra pref. initialized
Ultra pref. initializing...
Ultra pref. initialized
Ultra pref. initializing...
Ultra pref. initialized
Ultra pref. initializing...
Ultra pref. initialized

Warmup complete CPU 0 instructions: 1764384 cycles: 540916 (Simulation time: 0 hr 0 min 11 sec) 
Warmup complete CPU 1 instructions: 1373343 cycles: 540916 (Simulation time: 0 hr 0 min 11 sec) 
Warmup complete CPU 2 instructions: 1121473 cycles: 540916 (Simulation time: 0 hr 0 min 11 sec) 
Warmup complete CPU 3 instructions: 1000001 cycles: 540916 (Simulation time: 0 hr 0 min 11 sec) 

Heartbeat CPU 0 instructions: 10000001 cycles: 4045306 heartbeat IPC: 2.472 cumulative IPC: 2.35009 (Simulation time: 0 hr 0 min 38 sec) 
Finished CPU 0 instructions: 10000001 cycles: 4259719 cumulative IPC: 2.34757 (Simulation time: 0 hr 0 min 44 sec) 
Heartbeat CPU 2 instructions: 10000001 cycles: 7660087 heartbeat IPC: 1.30547 cumulative IPC: 1.24713 (Simulation time: 0 hr 1 min 6 sec) 
Heartbeat CPU 1 instructions: 10000003 cycles: 8089513 heartbeat IPC: 1.23617 cumulative IPC: 1.14282 (Simulation time: 0 hr 1 min 9 sec) 
Heartbeat CPU 0 instructions: 20000000 cycles: 8237332 heartbeat IPC: 2.38548 cumulative IPC: 2.36936 (Simulation time: 0 hr 1 min 11 sec) 
Finished CPU 2 instructions: 10000001 cycles: 8054777 cumulative IPC: 1.2415 (Simulation time: 0 hr 1 min 13 sec) 
Finished CPU 1 instructions: 10000000 cycles: 8777033 cumulative IPC: 1.13934 (Simulation time: 0 hr 1 min 19 sec) 
Heartbeat CPU 0 instructions: 30000001 cycles: 12424167 heartbeat IPC: 2.38844 cumulative IPC: 2.37609 (Simulation time: 0 hr 1 min 43 sec) 
Heartbeat CPU 2 instructions: 20000000 cycles: 15703619 heartbeat IPC: 1.24323 cumulative IPC: 1.24506 (Simulation time: 0 hr 2 min 9 sec) 
Heartbeat CPU 0 instructions: 40000002 cycles: 16960640 heartbeat IPC: 2.20436 cumulative IPC: 2.32864 (Simulation time: 0 hr 2 min 18 sec) 
Heartbeat CPU 1 instructions: 20000003 cycles: 17203792 heartbeat IPC: 1.09718 cumulative IPC: 1.11785 (Simulation time: 0 hr 2 min 20 sec) 
Heartbeat CPU 0 instructions: 50000000 cycles: 21322767 heartbeat IPC: 2.29246 cumulative IPC: 2.32105 (Simulation time: 0 hr 2 min 52 sec) 
Heartbeat CPU 3 instructions: 10000000 cycles: 22766967 heartbeat IPC: 0.439233 cumulative IPC: 0.40493 (Simulation time: 0 hr 3 min 3 sec) 
Heartbeat CPU 2 instructions: 30000001 cycles: 23748885 heartbeat IPC: 1.24297 cumulative IPC: 1.24434 (Simulation time: 0 hr 3 min 10 sec) 
Finished CPU 3 instructions: 10000000 cycles: 24737442 cumulative IPC: 0.404246 (Simulation time: 0 hr 3 min 22 sec) 

CPU 0 Branch Prediction Accuracy: 97.1095% MPKI: 3.94689 Average ROB Occupancy at Mispredict: 49.7922

CPU 1 Branch Prediction Accuracy: 91.7966% MPKI: 8.97395 Average ROB Occupancy at Mispredict: 47.2246

CPU 2 Branch Prediction Accuracy: 99.8421% MPKI: 0.0106736 Average ROB Occupancy at Mispredict: 18.4152

CPU 3 Branch Prediction Accuracy: 96.1891% MPKI: 5.6957 Average ROB Occupancy at Mispredict: 85.1904

ChampSim completed all CPUs

Total Simulation Statistics (not including warmup)

CPU 0 cumulative IPC: 2.31846 instructions: 57352797 cycles: 24737442
L1D TOTAL     ACCESS:   18086407  HIT:   18086241  MISS:        166
L1D LOAD      ACCESS:    6641135  HIT:    6641099  MISS:         36
L1D RFO       ACCESS:    8166135  HIT:    8166081  MISS:         54
L1D PREFETCH  ACCESS:    3279137  HIT:    3279061  MISS:         76
L1D WRITEBACK ACCESS:          0  HIT:          0  MISS:          0
L1I TOTAL     ACCESS:    3871166  HIT:    3869776  MISS:       1390
L1I LOAD      ACCESS:    3871166  HIT:    3869776  MISS:       1390
L1I RFO       ACCESS:          0  HIT:          0  MISS:          0
L1I PREFETCH  ACCESS:          0  HIT:          0  MISS:          0
L1I WRITEBACK ACCESS:          0  HIT:          0  MISS:          0
L2C TOTAL     ACCESS:       6141  HIT:       4935  MISS:       1206
L2C LOAD      ACCESS:       1423  HIT:       1185  MISS:        238
L2C RFO       ACCESS:         54  HIT:         16  MISS:         38
L2C PREFETCH  ACCESS:       4664  HIT:       3734  MISS:        930
L2C WRITEBACK ACCESS:          0  HIT:          0  MISS:          0

L1D -512>	(68,4)	(1,63)	(13,2)	(0,118)	(100,1)	(4,35)	(-20,1)	(3,16)	(5,19)	(8,1)	(-9,2)	(10,4)	(70,1)	(-2,2)	(-1,16)	(2,4)	
L1D -511>	(1,0)	(1,0)	(1,0)	(1,0)	(1,0)	(1,0)	(1,0)	(1,0)	(1,0)	(1,0)	(1,0)	(1,0)	(1,0)	(1,0)	(1,0)	(1,0)	
L1D -510>	(1,0)	(1,0)	(1,0)	(1,0)	(1,0)	(1,0)	(1,0)	(1,0)	(1,0)	(1,0)	(1,0)	(1,0)	(1,0)	(1,0)	(1,0)	(1,0)	
L1D -509>	(1,0)	(1,0)	(1,0)	(1,0)	(1,0)	(1,0)	(1,0)	(1,0)	(1,0)	(1,0)	(1,0)	(1,0)	(1,0)	(1,0)	(1,0)	(1,0)	
L1D -508>	(1,0)	(1,0)	(1,0)	(1,0)	(1,0)	(1,0)	(1,0)	(1,0)	(1,0)	(1,0)	(1,0)	(1,0)	(1,0)	(1,0)	(1,0)	(1,0)	
L1D -507>	(1,1)	(1,0)	(1,0)	(1,0)	(1,0)	(1,0)	(1,0)	(1,0)	(1,0)	(1,0)	(1,0)	(1,0)	(1,0)	(1,0)	(1,0)	(1,0)	
L1D -506>	(122,1)	(1,0)	(1,0)	(1,0)	(1,0)	(1,0)	(1,0)	(1,0)	(1,0)	(1,0)	(1,0)	(1,0)	(1,0)	(1,0)	(1,0)	(1,0)	
L1D -505>	(1,0)	(1,0)	(1,0)	(1,0)	(1,0)	(1,0)	(1,0)	(1,0)	(1,0)	(1,0)	(1,0)	(1,0)	(1,0)	(1,0)	(1,0)	(1,0)	
L1D -504>	(85,1)	(0,1)	(1,0)	(1,0)	(1,0)	(1,0)	(1,0)	(1,0)	(1,0)	(1,0)	(1,0)	(1,0)	(1,0)	(1,0)	(1,0)	(1,0)	
L1D -503>	(0,1)	(1,0)	(1,0)	(1,0)	(1,0)	(1,0)	(1,0)	(1,0)	(1,0)	(1,0)	(1,0)	(1,0)	(1,0)	(1,0)	(1,0)	(1,0)	
L1D -502>	(99,1)	(96,1)	(112,1)	(1,0)	(1,0)	(1,0)	(1,0)	(1,0)	(1,0)	(1,0)	(1,0)	(1,0)	(1,0)	(1,0)	(1,0)	(1,0)	
L1D -501>	(-6,1)	(342,1)	(4,1)	(1,0)	(1,0)	(1,0)	(1,0)	(1,0)	(1,0)	(1,0)	(1,0)	(1,0)	(1,0)	(1,0)	(1,0)	(1,0)	
L1D -500>	(4,1)	(1,0)	(1,0)	(1,0)	(1,0)	(1,0)	(1,0)	(1,0)	(1,0)	(1,0)	(1,0)	(1,0)	(1,0)	(1,0)	(1,0)	(1,0)	
L1D -499>	(29,1)	(94,1)	(1,0)	(1,0)	(1,0)	(1,0)	(1,0)	(1,0)	(1,0)	(1,0)	(1,0)	(1,0)	(1,0)	(1,0)	(1,0)	(1,0)	
L1D -498>	(146,1)	(85,3)	(1,0)	(1,0)	(1,0)	(1,0)	(1,0)	(1,0)	(1,0)	(1,0)	(1,0)	(1,0)	(1,0)	(1,0)	(1,0)	(1,0)	
L1D -497>	(1,0)	(1,0)	(1,0)	(1,0)	(1,0)	(1,0)	(1,0)	(1,0)	(1,0)	(1,0)	(1,0)	(1,0)	(1,0)	(1,0)	(1,0)	(1,0)	
L1D -496>	(135,1)	(1,0)	(1,0)	(1,0)	(1,0)	(1,0)	(1,0)	(1,0)	(1,0)	(1,0)	(1,0)	(1,0)	(1,0)	(1,0)	(1,0)	(1,0)	
L1D -495>	(0,1)	(146,1)	(1,0)	(1,0)	(1,0)	(1,0)	(1,0)	(1,0)	(1,0)	(1,0)	(1,0)	(1,0)	(1,0)	(1,0)	(1,0)	(1,0)	
L1D -494>	(0,1)	(112,2)	(146,1)	(1,0)	(1,0)	(1,0)	(1,0)	(1,0)	(1,0)	(1,0)	(1,0)	(1,0)	(1,0)	(1,0)	(1,0)	(1,0)	
L1D -493>	(1,1)	(0,1)	(1,0)	(1,0)	(1,0)	(1,0)	(1,0)	(1,0)	(1,0)	(1,0)	(1,0)	(1,0)	(1,0)	(1,0)	(1,0)	(1,0)	
L1D -492>	(0,2)	(1,0)	(1,0)	(1,0)	(1,0)	(1,0)	(1,0)	(1,0)	(1,0)	(1,0)	(1,0)	(1,0)	(1,0)	(1,0)	(1,0)	(1,0)	
L1D -491>	(-1,2)	(0,1)	(475,1)	(1,0)	(1,0)	(1,0)	(1,0)	(1,0)	(1,0)	(1,0)	(1,0)	(1,0)	(1,0)	(1,0)	(1,0)	(1,0)	
L1D -490>	(98,1)	(47,1)	(3,1)	(1,0)	(1,0)	(1,0)	(1,0)	(1,0)	(1,0)	(1,0)	(1,0)	(1,0)	(1,0)	(1,0)	(1,0)	(1,0)	
L1D -489>	(-3,1)	(1,0)	(1,0)	(1,0)	(1,0)	(1,0)	(1,0)	(1,0)	(1,0)	(1,0)	(1,0)	(1,0)	(1,0)	(1,0)	(1,0)	(1,0)	
L1D -488>	(-3,1)	(115,1)	(99,1)	(1,0)	(1,0)	(1,0)	(1,0)	(1,0)	(1,0)	(1,0)	(1,0)	(1,0)	(1,0)	(1,0)	(1,0)	(1,0)	
L1D -487>	(304,1)	(0,1)	(1,0)	(1,0)	(1,0)	(1,0)	(1,0)	(1,0)	(1,0)	(1,0)	(1,0)	(1,0)	(1,0)	(1,0)	(1,0)	(1,0)	
L1D -486>	(99,1)	(405,1)	(55,1)	(18,1)	(0,1)	(80,1)	(79,1)	(486,2)	(1,0)	(1,0)	(1,0)	(1,0)	(1,0)	(1,0)	(1,0)	(1,0)	
L1D -485>	(346,1)	(119,1)	(0,2)	(1,1)	(95,3)	(83,1)	(475,1)	(1,0)	(1,0)	(1,0)	(1,0)	(1,0)	(1,0)	(1,0)	(1,0)	(1,0)	
L1D -484>	(82,1)	(70,1)	(85,3)	(10,1)	(47,1)	(1,0)	(1,0)	(1,0)	(1,0)	(1,0)	(1,0)	(1,0)	(1,0)	(1,0)	(1,0)	(1,0)	
L1D -483>	(322,1)	(78,3)	(87,1)	(1,0)	(1,0)	(1,0)	(1,0)	(1,0)	(1,0)	(1,0)	(1,0)	(1,0)	(1,0)	(1,0)	(1,0)	(1,0)	
L1D -482>	(98,1)	(38,2)	(354,1)	(-25,1)	(311,2)	(-6,1)	(1,0)	(1,0)	(1,0)	(1,0)	(1,0)	(1,0)	(1,0)	(1,0)	(1,0)	(1,0)	
L1D -481>	(0,2)	(435,1)	(123,1)	(449,2)	(4,1)	(122,1)	(1,0)	(1,0)	(1,0)	(1,0)	(1,0)	(1,0)	(1,0)	(1,0)	(1,0)	(1,0)	
L1D -480>	(0,1)	(99,2)	(456,15)	(464,4)	(480,3)	(448,6)	(26,1)	(3,1)	(34,1)	(123,2)	(1,0)	(1,0)	(1,0)	(1,0)	(1,0)	(1,0)	
L1D -479>	(270,2)	(146,1)	(477,1)	(0,1)	(122,4)	(115,1)	(1,0)	(1,0)	(1,0)	(1,0)	(1,0)	(1,0)	(1,0)	(1,0)	(1,0)	(1,0)	
L1D -478>	(34,1)	(121,1)	(498,1)	(95,1)	(400,2)	(276,1)	(282,1)	(85,1)	(292,1)	(1,0)	(1,0)	(1,0)	(1,0)	(1,0)	(1,0)	(1,0)	
L1D -477>	(264,1)	(285,1)	(95,2)	(1,0)	(1,0)	(1,0)	(1,0)	(1,0)	(1,0)	(1,0)	(1,0)	(1,0)	(1,0)	(1,0)	(1,0)	(1,0)	
L1D -476>	(91,1)	(3,1)	(-2,1)	(0,1)	(94,1)	(1,0)	(1,0)	(1,0)	(1,0)	(1,0)	(1,0)	(1,0)	(1,0)	(1,0)	(1,0)	(1,0)	
L1D -475>	(475,3)	(411,1)	(0,2)	(4,1)	(1,0)	(1,0)	(1,0)	(1,0)	(1,0)	(1,0)	(1,0)	(1,0)	(1,0)	(1,0)	(1,0)	(1,0)	
L1D -474>	(115,3)	(2,1)	(474,1)	(0,1)	(1,0)	(1,0)	(1,0)	(1,0)	(1,0)	(1,0)	(1,0)	(1,0)	(1,0)	(1,0)	(1,0)	(1,0)	
L1D -473>	(2,1)	(4,1)	(0,1)	(52,1)	(1,0)	(1,0)	(1,0)	(1,0)	(1,0)	(1,0)	(1,0)	(1,0)	(1,0)	(1,0)	(1,0)	(1,0)	
L1D -472>	(113,2)	(98,3)	(-8,1)	(63,1)	(121,1)	(4,1)	(115,1)	(1,0)	(1,0)	(1,0)	(1,0)	(1,0)	(1,0)	(1,0)	(1,0)	(1,0)	
L1D -471>	(4,2)	(1,4)	(343,3)	(97,3)	(0,1)	(472,1)	(262,1)	(-9,1)	(-1,1)	(1,0)	(1,0)	(1,0)	(1,0)	(1,0)	(1,0)	(1,0)	
L1D -470>	(45,1)	(0,3)	(124,1)	(281,1)	(96,9)	(34,1)	(278,1)	(275,2)	(121,1)	(359,1)	(264,1)	(113,4)	(370,1)	(1,1)	(1,0)	(1,0)	
L1D -469>	(1,1)	(27,1)	(26,1)	(278,1)	(350,1)	(112,1)	(0,1)	(23,1)	(445,1)	(1,0)	(1,0)	(1,0)	(1,0)	(1,0)	(1,0)	(1,0)	
L1D -468>	(20,1)	(0,1)	(69,1)	(479,1)	(103,1)	(1,0)	(1,0)	(1,0)	(1,0)	(1,0)	(1,0)	(1,0)	(1,0)	(1,0)	(1,0)	(1,0)	
L1D -467>	(1,5)	(122,1)	(1,0)	(1,0)	(1,0)	(1,0)	(1,0)	(1,0)	(1,0)	(1,0)	(1,0)	(1,0)	(1,0)	(1,0)	(1,0)	(1,0)	
L1D -466>	(490,1)	(330,31)	(254,4)	(4,1)	(1,0)	(1,0)	(1,0)	(1,0)	(1,0)	(1,0)	(1,0)	(1,0)	(1,0)	(1,0)	(1,0)	(1,0)	
L1D -465>	(122,1)	(0,2)	(114,1)	(120,1)	(2,1)	(311,1)	(1,1)	(1,0)	(1,0)	(1,0)	(1,0)	(1,0)	(1,0)	(1,0)	(1,0)	(1,0)	
L1D -464>	(0,5)	(113,3)	(69,1)	(-1,1)	(17,1)	(2,1)	(448,4)	(1,1)	(268,1)	(1,0)	(1,0)	(1,0)	(1,0)	(1,0)	(1,0)	(1,0)	
L1D -463>	(1,1)	(17,1)	(122,1)	(1,0)	(1,0)	(1,0)	(1,0)	(1,0)	(1,0)	(1,0)	(1,0)	(1,0)	(1,0)	(1,0)	(1,0)	(1,0)	
L1D -462>	(277,1)	(218,1)	(89,1)	(104,1)	(1,1)	(120,1)	(266,1)	(122,1)	(1,0)	(1,0)	(1,0)	(1,0)	(1,0)	(1,0)	(1,0)	(1,0)	
L1D -461>	(17,1)	(428,1)	(1,2)	(430,1)	(1,0)	(1,0)	(1,0)	(1,0)	(1,0)	(1,0)	(1,0)	(1,0)	(1,0)	(1,0)	(1,0)	(1,0)	
L1D -460>	(78,1)	(1,1)	(-5,1)	(144,1)	(260,1)	(67,2)	(460,1)	(0,2)	(34,1)	(69,1)	(389,1)	(120,1)	(18,1)	(57,1)	(382,1)	(1,0)	
L1D -459>	(0,2)	(249,1)	(459,3)	(66,1)	(146,1)	(263,1)	(1,1)	(1,0)	(1,0)	(1,0)	(1,0)	(1,0)	(1,0)	(1,0)	(1,0)	(1,0)	
L1D -458>	(2,2)	(1,1)	(456,2)	(458,17)	(91,1)	(246,1)	(0,3)	(48,1)	(-6,1)	(1,0)	(1,0)	(1,0)	(1,0)	(1,0)	(1,0)	(1,0)	
L1D -457>	(2,2)	(122,3)	(106,1)	(329,9)	(350,4)	(332,3)	(322,1)	(1,1)	(312,2)	(305,1)	(328,1)	(0,2)	(1,0)	(1,0)	(1,0)	(1,0)	
L1D -456>	(8,2)	(113,1)	(0,2)	(1,2)	(16,1)	(260,2)	(448,30)	(-8,2)	(66,1)	(464,1)	(82,1)	(89,1)	(376,1)	(1,0)	(1,0)	(1,0)	
L1D -455>	(104,4)	(274,1)	(68,12)	(54,1)	(321,1)	(-8,2)	(1,0)	(1,0)	(1,0)	(1,0)	(1,0)	(1,0)	(1,0)	(1,0)	(1,0)	(1,0)	
L1D -454>	(0,30)	(1,23)	(251,1)	(247,12)	(108,1)	(267,1)	(295,1)	(79,1)	(50,2)	(80,5)	(25,1)	(57,2)	(279,10)	(1,0)	(1,0)	(1,0)	
L1D -453>	(0,3)	(17,1)	(453,13)	(287,1)	(279,1)	(-8,1)	(113,2)	(1,0)	(1,0)	(1,0)	(1,0)	(1,0)	(1,0)	(1,0)	(1,0)	(1,0)	
L1D -452>	(0,1)	(1,2)	(270,1)	(83,1)	(426,1)	(-1,1)	(124,1)	(1,0)	(1,0)	(1,0)	(1,0)	(1,0)	(1,0)	(1,0)	(1,0)	(1,0)	
L1D -451>	(2,5)	(-12,1)	(122,2)	(70,1)	(263,1)	(5,1)	(323,1)	(-8,2)	(1,0)	(1,0)	(1,0)	(1,0)	(1,0)	(1,0)	(1,0)	(1,0)	
L1D -450>	(2,1)	(115,10)	(97,1)	(1,3)	(304,1)	(366,1)	(400,1)	(384,1)	(314,7)	(38,1)	(270,1)	(392,1)	(4,1)	(0,5)	(1,0)	(1,0)	
L1D -449>	(114,4)	(312,2)	(68,108)	(0,15)	(122,3)	(1,4)	(2,29)	(236,1)	(386,1)	(449,2)	(5,1)	(120,2)	(104,1)	(330,1)	(1,0)	(1,0)	
L1D -448>	(113,9)	(122,6)	(320,3)	(456,5)	(68,6)	(-8,2)	(121,7)	(384,22)	(416,17)	(112,17)	(432,8)	(448,98)	(480,40)	(464,3)	(287,4)	(106,2)	
L1D -447>	(319,9)	(447,14)	(-2,3)	(8,2)	(445,1)	(0,26)	(121,2)	(119,1)	(384,4)	(7,2)	(112,1)	(14,2)	(444,1)	(311,2)	(71,1)	(15,1)	
L1D -446>	(446,1)	(319,2)	(77,3)	(0,8)	(318,1)	(459,1)	(278,1)	(447,1)	(4,1)	(1,2)	(120,3)	(285,1)	(122,1)	(448,1)	(108,1)	(1,0)	
L1D -445>	(0,7)	(68,1)	(319,2)	(445,1)	(1,1)	(458,1)	(444,1)	(23,1)	(2,1)	(-10,1)	(1,0)	(1,0)	(1,0)	(1,0)	(1,0)	(1,0)	
L1D -444>	(17,1)	(1,1)	(144,2)	(93,1)	(67,4)	(260,6)	(252,1)	(71,1)	(0,6)	(-8,1)	(69,2)	(444,1)	(72,1)	(111,1)	(113,1)	(272,1)	
L1D -443>	(0,6)	(-26,3)	(396,1)	(66,1)	(443,5)	(1,1)	(217,1)	(279,1)	(278,1)	(277,1)	(269,1)	(1,0)	(1,0)	(1,0)	(1,0)	(1,0)	
L1D -442>	(1,3)	(442,1)	(0,6)	(113,2)	(399,1)	(-1,1)	(106,2)	(-7,1)	(443,1)	(287,1)	(-18,1)	(2,1)	(269,1)	(216,1)	(1,0)	(1,0)	
L1D -441>	(115,4)	(114,1)	(106,2)	(-8,1)	(273,3)	(-1,2)	(-6,2)	(60,1)	(70,1)	(-10,1)	(1,0)	(1,0)	(1,0)	(1,0)	(1,0)	(1,0)	
L1D -440>	(-8,32)	(114,2)	(312,2)	(113,5)	(440,7)	(2,1)	(-9,1)	(459,1)	(-1,3)	(3,1)	(0,3)	(63,3)	(105,1)	(77,1)	(-3,1)	(324,2)	
L1D -439>	(113,8)	(0,57)	(-9,5)	(232,4)	(243,4)	(459,2)	(35,2)	(457,2)	(278,3)	(259,3)	(-8,2)	(308,2)	(310,2)	(267,1)	(331,1)	(338,1)	
L1D -438>	(459,13)	(438,51)	(212,7)	(276,2)	(311,7)	(295,4)	(445,4)	(436,1)	(330,1)	(336,1)	(358,1)	(367,1)	(306,1)	(340,1)	(338,1)	(328,1)	
L1D -437>	(1,3)	(438,109)	(212,2)	(0,1)	(311,15)	(458,3)	(434,11)	(29,2)	(295,1)	(445,1)	(345,3)	(-2,0)	(437,1)	(274,0)	(1,0)	(1,0)	
L1D -436>	(0,2)	(1,1)	(438,105)	(434,9)	(295,5)	(-8,1)	(63,1)	(212,1)	(107,0)	(69,0)	(1,0)	(1,0)	(1,0)	(1,0)	(1,0)	(1,0)	
L1D -435>	(118,3)	(266,2)	(435,113)	(294,11)	(434,4)	(438,9)	(431,7)	(210,14)	(261,6)	(93,9)	(97,5)	(92,5)	(104,38)	(105,8)	(250,19)	(263,2)	
L1D -434>	(1,6)	(0,9)	(212,7)	(435,29)	(438,89)	(434,17)	(295,5)	(121,0)	(113,0)	(293,0)	(398,0)	(5,0)	(-16,0)	(-11,0)	(101,0)	(69,0)	
L1D -433>	(1,4)	(-8,1)	(0,11)	(3,1)	(-3,55)	(435,80)	(294,11)	(210,1)	(431,4)	(438,2)	(250,0)	(2,0)	(1,0)	(1,0)	(1,0)	(1,0)	
L1D -432>	(0,5)	(431,3)	(3,2)	(10,1)	(364,1)	(238,3)	(432,2)	(97,1)	(91,1)	(1,1)	(61,1)	(52,1)	(-20,1)	(2,2)	(435,10)	(106,1)	
L1D -431>	(0,5)	(121,1)	(112,0)	(1,84)	(431,83)	(294,6)	(210,20)	(435,71)	(23,0)	(92,0)	(17,0)	(8,0)	(7,0)	(47,0)	(2,0)	(106,0)	
L1D -430>	(1,87)	(269,1)	(250,1)	(206,0)	(97,0)	(431,0)	(169,0)	(418,0)	(261,0)	(26,0)	(121,0)	(16,0)	(69,0)	(57,0)	(-2,0)	(286,0)	
L1D -429>	(1,96)	(0,0)	(316,0)	(411,0)	(-3,0)	(-8,0)	(431,0)	(79,0)	(93,0)	(1,0)	(1,0)	(1,0)	(1,0)	(1,0)	(1,0)	(1,0)	
L1D -428>	(0,9)	(1,31)	(412,1)	(-1,4)	(408,1)	(4,1)	(61,3)	(8,3)	(360,1)	(250,1)	(89,1)	(16,2)	(1,0)	(1,0)	(1,0)	(1,0)	
L1D -427>	(1,127)	(104,1)	(28,16)	(5,0)	(8,0)	(-1,0)	(203,0)	(56,0)	(-5,0)	(427,15)	(290,0)	(423,0)	(2,0)	(1,0)	(1,0)	(1,0)	
L1D -426>	(1,69)	(27,33)	(-1,72)	(4,5)	(0,13)	(427,125)	(423,4)	(-3,19)	(16,1)	(40,2)	(426,1)	(8,13)	(290,1)	(203,2)	(104,1)	(57,1)	
L1D -425>	(-1,46)	(1,1)	(0,0)	(427,69)	(423,4)	(8,0)	(203,6)	(290,6)	(353,0)	(2,0)	(5,0)	(1,0)	(1,0)	(1,0)	(1,0)	(1,0)	
L1D -424>	(0,6)	(1,5)	(203,2)	(290,1)	(-1,2)	(427,8)	(8,2)	(423,8)	(53,1)	(297,3)	(353,2)	(428,1)	(254,1)	(412,1)	(20,1)	(246,1)	
L1D -423>	(0,8)	(1,80)	(2,3)	(427,27)	(423,99)	(203,4)	(290,15)	(8,1)	(215,9)	(5,1)	(-2,1)	(-4,1)	(-10,0)	(94,0)	(213,0)	(-1,0)	
L1D -422>	(1,84)	(0,1)	(2,11)	(-1,6)	(215,8)	(-79,0)	(213,3)	(214,13)	(101,0)	(34,0)	(410,0)	(418,0)	(247,0)	(1,0)	(1,0)	(1,0)	
L1D -421>	(0,3)	(1,105)	(-1,54)	(214,7)	(79,0)	(2,0)	(421,0)	(213,2)	(316,0)	(16,0)	(1,0)	(1,0)	(1,0)	(1,0)	(1,0)	(1,0)	
L1D -420>	(1,30)	(0,43)	(421,4)	(402,2)	(248,1)	(420,3)	(215,1)	(388,1)	(53,1)	(-3,29)	(-4,1)	(79,1)	(3,2)	(383,1)	(214,1)	(8,1)	
L1D -419>	(1,82)	(0,2)	(196,0)	(419,9)	(286,1)	(8,1)	(56,0)	(420,0)	(1,0)	(1,0)	(1,0)	(1,0)	(1,0)	(1,0)	(1,0)	(1,0)	
L1D -418>	(3,100)	(160,1)	(278,1)	(0,3)	(-3,1)	(-5,1)	(419,64)	(418,4)	(94,1)	(306,0)	(1,2)	(46,0)	(415,1)	(8,0)	(1,0)	(1,0)	
L1D -417>	(-10,85)	(0,0)	(286,0)	(417,0)	(419,1)	(122,0)	(113,0)	(31,0)	(1,0)	(-3,0)	(1,0)	(1,0)	(1,0)	(1,0)	(1,0)	(1,0)	
L1D -416>	(0,6)	(202,2)	(400,4)	(260,6)	(209,9)	(416,24)	(392,2)	(204,3)	(252,4)	(-64,1)	(128,2)	(5,5)	(1,6)	(415,8)	(53,1)	(384,3)	
L1D -415>	(414,0)	(1,77)	(107,0)	(415,0)	(-3,1)	(286,0)	(445,0)	(1,0)	(1,0)	(1,0)	(1,0)	(1,0)	(1,0)	(1,0)	(1,0)	(1,0)	
L1D -414>	(1,82)	(402,2)	(0,1)	(414,0)	(-28,0)	(100,0)	(-3,1)	(53,0)	(249,0)	(1,0)	(1,0)	(1,0)	(1,0)	(1,0)	(1,0)	(1,0)	
L1D -413>	(1,85)	(0,2)	(2,2)	(413,2)	(5,1)	(11,2)	(120,1)	(-1,0)	(1,0)	(1,0)	(1,0)	(1,0)	(1,0)	(1,0)	(1,0)	(1,0)	
L1D -412>	(1,28)	(0,81)	(8,18)	(-3,90)	(18,1)	(412,9)	(-1,4)	(413,2)	(270,5)	(146,1)	(222,1)	(394,4)	(3,7)	(322,1)	(5,1)	(2,1)	
L1D -411>	(0,125)	(-7,11)	(160,1)	(8,1)	(411,0)	(-3,0)	(-1,0)	(1,0)	(1,0)	(1,0)	(1,0)	(1,0)	(1,0)	(1,0)	(1,0)	(1,0)	
L1D -410>	(-10,1)	(282,2)	(410,3)	(0,5)	(411,92)	(1,4)	(72,1)	(-3,1)	(189,1)	(79,1)	(246,1)	(64,1)	(-1,1)	(3,0)	(420,0)	(1,0)	
L1D -409>	(-3,12)	(421,1)	(8,1)	(-8,1)	(246,1)	(0,6)	(411,124)	(-64,13)	(2,1)	(282,8)	(409,1)	(377,1)	(1,2)	(407,7)	(189,1)	(344,7)	
L1D -408>	(407,6)	(390,2)	(206,5)	(0,26)	(-3,10)	(1,6)	(-64,7)	(404,1)	(409,4)	(113,4)	(411,7)	(440,1)	(2,1)	(104,3)	(384,1)	(282,4)	
L1D -407>	(0,25)	(1,79)	(4,3)	(27,9)	(411,50)	(407,83)	(282,22)	(94,16)	(8,2)	(2,4)	(105,3)	(349,2)	(155,5)	(39,1)	(285,4)	(499,1)	
L1D -406>	(9,4)	(449,1)	(1,71)	(113,1)	(205,1)	(394,2)	(-64,2)	(26,3)	(0,4)	(407,0)	(97,0)	(104,0)	(-8,0)	(70,0)	(406,2)	(10,0)	
L1D -405>	(3,1)	(1,114)	(5,2)	(255,1)	(401,3)	(-64,1)	(197,2)	(191,3)	(313,2)	(395,109)	(0,1)	(311,2)	(275,0)	(316,0)	(325,0)	(334,0)	
L1D -404>	(404,17)	(0,8)	(405,3)	(12,1)	(1,25)	(16,2)	(9,104)	(8,1)	(392,4)	(313,1)	(382,2)	(5,4)	(44,10)	(49,3)	(2,28)	(399,1)	
L1D -403>	(93,33)	(265,8)	(97,19)	(105,15)	(1,65)	(92,22)	(-1,7)	(403,5)	(104,39)	(121,28)	(113,39)	(90,17)	(250,57)	(-64,7)	(117,10)	(114,4)	
L1D -402>	(16,13)	(93,19)	(95,9)	(104,23)	(388,28)	(105,13)	(264,10)	(0,5)	(390,1)	(113,16)	(403,88)	(97,18)	(121,25)	(114,8)	(265,6)	(92,12)	
L1D -401>	(1,6)	(-64,4)	(182,6)	(278,12)	(202,2)	(438,1)	(399,7)	(0,3)	(2,5)	(97,1)	(403,112)	(250,4)	(11,1)	(8,1)	(113,2)	(401,4)	
L1D -400>	(0,13)	(44,16)	(-64,6)	(278,4)	(400,8)	(401,4)	(5,21)	(1,1)	(121,2)	(-1,1)	(112,4)	(122,67)	(384,2)	(105,1)	(363,3)	(399,8)	
L1D -399>	(0,11)	(1,49)	(9,11)	(16,5)	(250,6)	(86,12)	(270,3)	(403,43)	(90,10)	(121,1)	(278,18)	(265,4)	(399,76)	(92,4)	(-27,15)	(272,3)	
L1D -398>	(93,9)	(97,16)	(0,21)	(113,6)	(26,5)	(104,49)	(250,65)	(264,10)	(121,54)	(102,9)	(398,2)	(1,113)	(101,10)	(-3,5)	(108,5)	(92,28)	
L1D -397>	(26,1)	(250,4)	(-64,2)	(272,1)	(1,84)	(113,1)	(185,1)	(91,3)	(93,1)	(102,2)	(104,1)	(-43,1)	(1,0)	(1,0)	(1,0)	(1,0)	
L1D -396>	(0,14)	(148,2)	(388,2)	(1,18)	(23,2)	(304,1)	(3,4)	(28,1)	(271,1)	(-9,1)	(-64,3)	(112,2)	(396,5)	(397,3)	(250,1)	(197,1)	
L1D -395>	(397,9)	(102,2)	(1,109)	(44,9)	(113,4)	(0,7)	(395,14)	(9,3)	(90,1)	(-64,26)	(5,3)	(104,6)	(117,2)	(103,3)	(101,1)	(250,8)	
L1D -394>	(106,14)	(101,17)	(1,17)	(0,8)	(3,5)	(200,3)	(250,16)	(395,115)	(102,12)	(118,2)	(9,2)	(396,5)	(394,2)	(186,2)	(-1,1)	(175,5)	
L1D -393>	(-64,8)	(393,18)	(175,4)	(274,3)	(8,74)	(293,3)	(177,2)	(0,8)	(206,2)	(5,2)	(197,7)	(191,2)	(395,75)	(391,8)	(183,2)	(2,3)	
L1D -392>	(70,35)	(0,2)	(5,2)	(392,5)	(393,4)	(1,1)	(-8,3)	(67,1)	(238,1)	(395,4)	(440,10)	(3,1)	(121,1)	(391,4)	(-16,1)	(160,1)	
L1D -391>	(20,92)	(392,0)	(-101,0)	(4,0)	(391,0)	(-64,0)	(11,0)	(138,0)	(78,0)	(483,0)	(12,0)	(325,0)	(0,0)	(202,0)	(-4,0)	(1,0)	
L1D -390>	(26,56)	(0,6)	(446,1)	(2,1)	(215,8)	(386,1)	(-10,1)	(183,1)	(-2,1)	(324,1)	(390,5)	(389,1)	(364,1)	(1,75)	(-64,5)	(114,3)	
L1D -389>	(-64,6)	(250,4)	(87,2)	(205,2)	(0,3)	(1,94)	(101,1)	(385,1)	(-69,1)	(98,1)	(2,2)	(261,4)	(390,1)	(197,1)	(78,1)	(-1,3)	
L1D -388>	(148,5)	(267,29)	(0,15)	(388,2)	(-8,2)	(-1,2)	(-16,21)	(174,2)	(-72,2)	(56,2)	(126,1)	(8,1)	(-3,11)	(1,8)	(380,3)	(5,1)	
L1D -387>	(1,109)	(2,2)	(114,14)	(387,9)	(-8,2)	(-64,2)	(0,2)	(104,1)	(360,1)	(414,1)	(-1,1)	(122,2)	(-2,2)	(352,3)	(-16,10)	(56,1)	
L1D -386>	(386,105)	(0,13)	(416,0)	(-31,7)	(8,0)	(-64,3)	(94,0)	(1,0)	(1,0)	(1,0)	(1,0)	(1,0)	(1,0)	(1,0)	(1,0)	(1,0)	
L1D -385>	(0,17)	(-64,6)	(197,5)	(113,9)	(122,44)	(106,5)	(320,1)	(385,5)	(2,7)	(51,1)	(8,34)	(-67,2)	(-2,1)	(150,1)	(383,7)	(387,34)	
L1D -384>	(0,9)	(121,23)	(8,3)	(-64,5)	(-72,5)	(384,111)	(400,13)	(448,2)	(392,6)	(387,2)	(372,2)	(332,3)	(111,2)	(416,34)	(112,5)	(385,1)	
L1D -383>	(0,9)	(6,5)	(383,92)	(120,9)	(-1,6)	(-64,7)	(111,2)	(205,2)	(-2,1)	(288,2)	(5,3)	(394,1)	(401,1)	(387,51)	(1,11)	(270,5)	
L1D -382>	(-94,1)	(0,5)	(30,1)	(146,1)	(377,1)	(387,1)	(388,1)	(382,1)	(189,1)	(-64,4)	(197,2)	(419,4)	(-95,1)	(1,66)	(204,1)	(332,2)	
L1D -381>	(0,10)	(114,111)	(-64,3)	(152,7)	(197,2)	(8,2)	(1,36)	(-4,1)	(-1,1)	(82,2)	(35,1)	(29,1)	(366,1)	(44,1)	(85,1)	(414,1)	
L1D -380>	(380,7)	(128,4)	(250,6)	(218,1)	(0,11)	(26,4)	(96,2)	(-64,7)	(1,9)	(-8,2)	(55,28)	(252,3)	(-16,2)	(296,2)	(-72,2)	(238,2)	
L1D -379>	(1,101)	(-64,4)	(16,2)	(0,10)	(267,2)	(-5,1)	(197,2)	(122,9)	(379,13)	(270,1)	(363,5)	(186,1)	(-1,2)	(-21,1)	(-8,10)	(-16,6)	
L1D -378>	(-48,4)	(200,10)	(115,6)	(3,8)	(378,15)	(0,18)	(182,4)	(380,18)	(379,53)	(16,11)	(113,12)	(-64,3)	(-32,4)	(122,6)	(1,1)	(5,5)	
L1D -377>	(0,17)	(341,4)	(1,8)	(197,31)	(114,10)	(312,13)	(244,1)	(5,12)	(-64,38)	(377,51)	(313,3)	(4,5)	(344,3)	(8,18)	(386,10)	(110,4)	
L1D -376>	(113,24)	(51,12)	(1,1)	(0,20)	(345,4)	(8,47)	(16,19)	(337,3)	(98,2)	(440,14)	(55,9)	(245,3)	(-7,3)	(104,5)	(97,5)	(-12,2)	
L1D -375>	(-128,9)	(347,4)	(296,3)	(-64,1)	(197,6)	(1,6)	(95,2)	(375,46)	(60,3)	(183,4)	(97,2)	(379,26)	(8,5)	(0,8)	(18,14)	(2,2)	
L1D -374>	(6,2)	(1,49)	(122,7)	(8,11)	(5,2)	(0,8)	(271,3)	(-64,7)	(96,9)	(380,1)	(407,3)	(411,3)	(50,2)	(363,1)	(2,1)	(103,1)	
L1D -373>	(-64,29)	(0,11)	(79,3)	(5,9)	(1,12)	(243,2)	(4,4)	(271,16)	(382,4)	(8,1)	(259,1)	(252,1)	(244,1)	(284,1)	(250,1)	(302,1)	
L1D -372>	(-21,81)	(-45,0)	(0,0)	(26,0)	(381,0)	(18,0)	(9,0)	(-13,0)	(1,0)	(1,0)	(1,0)	(1,0)	(1,0)	(1,0)	(1,0)	(1,0)	
L1D -371>	(72,10)	(44,3)	(416,1)	(1,42)	(371,4)	(8,7)	(16,7)	(-1,2)	(0,8)	(214,2)	(-64,2)	(-20,4)	(127,1)	(-8,4)	(46,15)	(60,1)	
L1D -370>	(234,33)	(140,11)	(184,18)	(0,6)	(3,5)	(8,13)	(370,6)	(1,11)	(371,14)	(16,5)	(-64,9)	(458,1)	(192,1)	(44,4)	(-1,2)	(377,1)	
L1D -369>	(1,5)	(106,2)	(-64,17)	(5,5)	(45,3)	(4,4)	(8,8)	(2,3)	(-11,1)	(0,2)	(160,1)	(-1,7)	(157,2)	(367,3)	(369,2)	(371,2)	
L1D -368>	(-4,14)	(366,14)	(-8,6)	(1,89)	(437,1)	(368,57)	(361,21)	(438,35)	(8,3)	(44,115)	(439,16)	(-64,13)	(45,77)	(55,19)	(0,41)	(-10,13)	
L1D -367>	(0,42)	(-9,8)	(104,3)	(-64,38)	(368,4)	(3,3)	(-10,2)	(371,4)	(1,25)	(2,3)	(17,2)	(367,6)	(235,1)	(44,99)	(-1,6)	(-5,3)	
L1D -366>	(331,2)	(9,50)	(44,4)	(0,11)	(3,2)	(-128,2)	(-18,1)	(320,1)	(-64,6)	(241,1)	(399,1)	(1,4)	(366,2)	(252,1)	(365,1)	(4,1)	
L1D -365>	(-64,63)	(60,14)	(-1,2)	(0,8)	(366,2)	(1,3)	(365,3)	(235,1)	(8,7)	(-57,1)	(5,3)	(40,1)	(2,1)	(45,1)	(1,0)	(1,0)	
L1D -364>	(268,118)	(-64,1)	(236,1)	(9,7)	(172,1)	(44,36)	(-3,0)	(-26,1)	(-4,0)	(364,0)	(1,0)	(-8,0)	(3,0)	(1,0)	(1,0)	(1,0)	
L1D -363>	(403,4)	(-1,10)	(1,6)	(175,2)	(44,126)	(83,2)	(48,16)	(4,18)	(3,1)	(9,48)	(-8,1)	(0,10)	(345,3)	(2,1)	(46,1)	(104,1)	
L1D -362>	(360,27)	(9,16)	(1,3)	(-64,27)	(6,3)	(0,19)	(-3,2)	(283,2)	(230,1)	(331,3)	(341,1)	(366,1)	(314,1)	(400,1)	(468,1)	(362,5)	
L1D -361>	(0,5)	(-64,30)	(331,7)	(103,1)	(362,2)	(116,1)	(1,2)	(-8,3)	(361,7)	(-2,1)	(91,1)	(62,2)	(330,3)	(366,1)	(340,1)	(265,1)	
L1D -360>	(148,4)	(298,88)	(296,10)	(-3,4)	(5,2)	(0,4)	(360,5)	(8,12)	(1,4)	(361,6)	(251,1)	(-128,4)	(313,1)	(47,1)	(-64,4)	(142,3)	
L1D -359>	(60,91)	(1,6)	(0,18)	(331,2)	(3,4)	(76,2)	(93,1)	(-64,2)	(5,3)	(9,4)	(-3,116)	(-128,1)	(359,2)	(-1,2)	(6,1)	(8,3)	
L1D -358>	(8,0)	(3,0)	(9,0)	(356,78)	(16,0)	(316,0)	(0,0)	(358,0)	(-3,0)	(-64,0)	(1,0)	(1,0)	(1,0)	(1,0)	(1,0)	(1,0)	
L1D -357>	(0,11)	(-128,29)	(229,1)	(357,5)	(5,4)	(1,2)	(79,2)	(6,1)	(-57,1)	(57,1)	(8,4)	(-8,1)	(274,1)	(16,1)	(165,3)	(352,1)	
L1D -356>	(-31,9)	(262,21)	(70,13)	(41,32)	(-64,2)	(1,4)	(38,1)	(192,1)	(0,17)	(79,5)	(24,1)	(-18,1)	(356,3)	(-39,48)	(5,55)	(113,2)	
L1D -355>	(4,4)	(41,1)	(215,114)	(5,3)	(-14,1)	(1,1)	(365,21)	(42,0)	(-16,0)	(265,0)	(355,0)	(447,0)	(0,3)	(2,0)	(341,0)	(279,0)	
L1D -354>	(357,0)	(0,3)	(380,0)	(1,0)	(268,0)	(240,0)	(-42,0)	(154,1)	(396,1)	(402,0)	(292,0)	(400,0)	(388,109)	(398,0)	(378,2)	(337,0)	
L1D -353>	(2,3)	(123,1)	(354,1)	(122,1)	(24,1)	(0,4)	(-16,4)	(64,1)	(16,1)	(1,17)	(447,1)	(107,1)	(-32,1)	(60,1)	(8,2)	(274,1)	
L1D -352>	(-7,0)	(220,89)	(122,0)	(-30,2)	(244,0)	(26,0)	(142,0)	(88,2)	(91,0)	(260,0)	(38,0)	(212,0)	(264,0)	(124,1)	(2,0)	(218,0)	
L1D -351>	(317,2)	(213,2)	(95,4)	(-1,31)	(1,93)	(363,5)	(-44,3)	(266,4)	(24,2)	(0,10)	(3,2)	(361,4)	(122,12)	(351,4)	(384,3)	(96,3)	
L1D -350>	(-3,0)	(1,105)	(20,1)	(420,0)	(252,2)	(-2,0)	(304,0)	(1,0)	(1,0)	(1,0)	(1,0)	(1,0)	(1,0)	(1,0)	(1,0)	(1,0)	
L1D -349>	(181,4)	(89,2)	(-128,3)	(0,7)	(8,6)	(334,2)	(116,1)	(79,1)	(81,1)	(9,1)	(-108,1)	(244,2)	(225,1)	(-1,4)	(17,1)	(350,1)	
L1D -348>	(212,4)	(4,15)	(234,2)	(12,2)	(1,4)	(347,22)	(28,20)	(256,11)	(-64,2)	(0,7)	(115,4)	(122,8)	(2,1)	(348,5)	(26,2)	(6,1)	
L1D -347>	(174,26)	(345,2)	(176,4)	(2,117)	(347,12)	(4,15)	(346,21)	(172,18)	(181,2)	(348,45)	(-1,21)	(363,2)	(3,33)	(68,1)	(349,1)	(344,126)	
L1D -346>	(254,26)	(345,74)	(-64,1)	(351,2)	(342,50)	(4,6)	(0,0)	(344,1)	(343,2)	(173,2)	(174,0)	(347,0)	(172,1)	(3,0)	(1,4)	(234,0)	
L1D -345>	(171,7)	(85,1)	(169,1)	(342,18)	(1,1)	(311,1)	(345,69)	(346,72)	(254,0)	(2,8)	(172,61)	(301,3)	(4,0)	(173,4)	(344,0)	(-1,0)	
L1D -344>	(3,1)	(171,24)	(172,9)	(169,3)	(2,4)	(341,39)	(1,5)	(170,3)	(173,22)	(-3,8)	(168,2)	(347,2)	(4,110)	(343,16)	(-1,9)	(348,12)	
L1D -343>	(343,1)	(346,1)	(342,3)	(171,20)	(170,0)	(-2,3)	(1,4)	(174,0)	(345,6)	(172,40)	(-1,108)	(-3,0)	(169,3)	(351,0)	(338,0)	(344,0)	
L1D -342>	(346,2)	(351,0)	(-1,43)	(170,13)	(0,0)	(5,1)	(-4,0)	(344,4)	(168,0)	(171,0)	(169,4)	(172,0)	(343,0)	(173,0)	(345,97)	(-2,3)	
L1D -341>	(4,29)	(172,62)	(345,1)	(0,11)	(344,1)	(341,6)	(5,11)	(346,1)	(-1,64)	(-2,12)	(342,1)	(171,5)	(169,3)	(343,2)	(173,1)	(170,10)	
L1D -340>	(-128,1)	(343,5)	(171,117)	(168,19)	(0,1)	(3,0)	(169,21)	(-4,18)	(1,0)	(-1,12)	(-6,0)	(2,0)	(-64,1)	(344,18)	(454,0)	(172,9)	
L1D -339>	(2,2)	(-13,1)	(286,25)	(267,4)	(459,2)	(465,1)	(114,1)	(276,83)	(461,2)	(3,2)	(4,1)	(0,15)	(150,1)	(1,2)	(170,3)	(416,1)	
L1D -338>	(134,3)	(1,14)	(306,8)	(24,38)	(252,6)	(-14,54)	(-3,64)	(-64,0)	(242,1)	(-12,11)	(78,20)	(275,3)	(458,3)	(338,3)	(316,17)	(304,22)	
L1D -337>	(342,73)	(13,1)	(104,4)	(117,108)	(-4,30)	(167,11)	(276,5)	(114,86)	(274,7)	(1,1)	(-1,33)	(243,1)	(275,24)	(172,9)	(-64,4)	(0,1)	
L1D -336>	(212,118)	(-128,1)	(-64,0)	(336,0)	(240,0)	(326,0)	(16,0)	(1,0)	(-5,0)	(72,0)	(4,0)	(254,0)	(192,0)	(228,0)	(200,0)	(275,0)	
L1D -335>	(-2,12)	(172,57)	(-1,58)	(-64,103)	(0,5)	(-16,57)	(15,31)	(-128,13)	(112,3)	(4,2)	(6,1)	(162,1)	(42,1)	(-3,2)	(-15,1)	(92,1)	
L1D -334>	(328,1)	(0,2)	(334,1)	(339,1)	(132,0)	(286,0)	(331,0)	(122,0)	(362,0)	(1,1)	(-11,74)	(-64,3)	(115,0)	(14,0)	(66,0)	(337,0)	
L1D -333>	(0,16)	(5,26)	(9,19)	(4,16)	(-64,4)	(1,5)	(40,3)	(23,1)	(24,1)	(-1,2)	(54,1)	(333,3)	(92,1)	(-61,2)	(325,1)	(334,1)	
L1D -332>	(18,94)	(334,95)	(115,1)	(332,0)	(0,0)	(384,0)	(220,0)	(242,0)	(-14,0)	(333,0)	(98,2)	(2,0)	(1,0)	(1,0)	(1,0)	(1,0)	
L1D -331>	(358,12)	(331,18)	(115,2)	(-128,14)	(1,8)	(83,52)	(330,34)	(155,23)	(0,13)	(196,111)	(164,44)	(326,86)	(367,26)	(366,50)	(245,25)	(-64,20)	
L1D -330>	(155,59)	(286,10)	(-16,0)	(164,18)	(2,1)	(74,2)	(1,3)	(330,7)	(-64,8)	(338,15)	(0,3)	(232,8)	(276,44)	(300,1)	(5,1)	(-22,68)	
L1D -329>	(41,1)	(-64,0)	(3,4)	(40,5)	(4,2)	(242,0)	(9,75)	(5,1)	(458,0)	(0,0)	(353,0)	(2,0)	(-128,0)	(1,0)	(130,0)	(122,0)	
L1D -328>	(15,69)	(1,0)	(3,0)	(9,2)	(22,54)	(328,1)	(-64,0)	(275,0)	(0,1)	(122,0)	(329,0)	(116,4)	(5,0)	(4,10)	(2,0)	(216,31)	
L1D -327>	(0,6)	(1,9)	(368,17)	(8,3)	(-128,7)	(3,2)	(-64,4)	(-16,1)	(7,67)	(-1,5)	(113,0)	(400,0)	(5,25)	(454,0)	(56,0)	(384,0)	
L1D -326>	(1,71)	(6,2)	(318,1)	(-128,2)	(140,2)	(-3,1)	(96,8)	(158,0)	(0,0)	(-5,0)	(-64,0)	(218,0)	(-11,0)	(1,0)	(1,0)	(1,0)	
L1D -325>	(9,11)	(-64,0)	(5,107)	(-4,0)	(329,0)	(250,0)	(41,95)	(111,0)	(40,0)	(324,0)	(356,0)	(-6,0)	(1,4)	(1,0)	(1,0)	(1,0)	
L1D -324>	(9,109)	(322,1)	(238,26)	(4,26)	(40,21)	(115,1)	(5,0)	(1,4)	(-9,5)	(41,0)	(0,0)	(20,0)	(-4,0)	(-5,0)	(335,0)	(16,0)	
L1D -323>	(9,35)	(451,1)	(49,2)	(2,67)	(-10,8)	(4,1)	(332,0)	(0,2)	(44,55)	(336,1)	(5,107)	(122,17)	(-45,0)	(1,0)	(40,0)	(-44,0)	
L1D -322>	(280,4)	(74,97)	(314,88)	(197,98)	(86,0)	(5,1)	(0,0)	(320,0)	(-8,0)	(232,2)	(2,1)	(96,2)	(20,0)	(82,1)	(42,0)	(302,90)	
L1D -321>	(215,2)	(123,1)	(5,79)	(4,1)	(352,1)	(41,114)	(316,1)	(319,0)	(1,0)	(-64,15)	(0,4)	(321,1)	(-86,0)	(454,0)	(16,0)	(107,0)	
L1D -320>	(102,2)	(314,1)	(40,19)	(0,1)	(236,98)	(462,1)	(-28,1)	(52,3)	(90,4)	(315,1)	(-14,6)	(4,1)	(78,1)	(41,19)	(-16,0)	(214,0)	
L1D -319>	(319,6)	(9,114)	(167,2)	(330,2)	(-44,5)	(40,16)	(-9,4)	(0,10)	(1,1)	(6,2)	(361,2)	(265,41)	(4,7)	(446,1)	(20,2)	(-5,2)	
L1D -318>	(-11,0)	(323,0)	(-7,0)	(254,0)	(201,0)	(316,1)	(122,0)	(283,0)	(359,0)	(302,0)	(9,99)	(84,8)	(94,0)	(0,0)	(-28,2)	(190,0)	
L1D -317>	(-64,4)	(4,12)	(-11,11)	(265,7)	(0,13)	(345,26)	(197,7)	(-6,3)	(317,15)	(189,2)	(122,2)	(-15,5)	(2,12)	(24,1)	(133,1)	(32,1)	
L1D -316>	(106,109)	(100,1)	(30,3)	(80,0)	(350,0)	(115,0)	(244,1)	(-2,0)	(316,0)	(314,0)	(41,4)	(20,79)	(122,1)	(5,0)	(0,0)	(252,5)	
L1D -315>	(285,2)	(5,5)	(-5,10)	(4,7)	(-64,8)	(-4,11)	(0,27)	(121,3)	(315,6)	(267,3)	(40,24)	(26,1)	(1,5)	(-2,1)	(317,1)	(-13,3)	
L1D -314>	(272,78)	(270,2)	(298,70)	(254,0)	(-24,0)	(198,1)	(206,0)	(106,3)	(130,0)	(24,0)	(274,0)	(-38,0)	(1,0)	(-6,1)	(98,2)	(2,0)	
L1D -313>	(-5,13)	(0,15)	(313,125)	(-3,3)	(-128,5)	(6,5)	(1,4)	(-6,3)	(115,4)	(5,2)	(-86,11)	(257,1)	(197,41)	(21,1)	(414,1)	(-4,9)	
L1D -312>	(305,115)	(7,1)	(94,0)	(140,0)	(312,0)	(253,0)	(350,14)	(246,1)	(80,0)	(272,0)	(6,0)	(330,0)	(-64,0)	(1,0)	(1,0)	(1,0)	
L1D -311>	(32,19)	(-128,19)	(-64,50)	(255,4)	(3,62)	(0,12)	(329,4)	(7,3)	(311,2)	(101,2)	(330,13)	(113,4)	(312,5)	(-13,2)	(197,3)	(1,4)	
L1D -310>	(148,17)	(354,21)	(308,1)	(336,19)	(168,4)	(134,13)	(244,8)	(0,13)	(4,6)	(82,5)	(256,7)	(258,11)	(208,87)	(108,56)	(9,14)	(12,8)	
L1D -309>	(457,5)	(255,4)	(0,4)	(-64,67)	(12,2)	(309,2)	(277,1)	(-9,4)	(259,2)	(446,1)	(199,6)	(330,6)	(267,6)	(458,2)	(256,4)	(316,7)	
L1D -308>	(260,87)	(258,1)	(270,68)	(240,0)	(-64,0)	(222,0)	(316,0)	(91,0)	(86,1)	(308,0)	(244,4)	(109,0)	(372,0)	(238,0)	(82,4)	(192,0)	
L1D -307>	(0,7)	(347,2)	(256,4)	(5,2)	(455,1)	(3,3)	(440,3)	(307,2)	(-64,9)	(311,1)	(18,6)	(335,1)	(458,31)	(-1,1)	(-5,1)	(339,1)	
L1D -306>	(-4,0)	(0,105)	(272,1)	(259,0)	(8,6)	(267,0)	(306,14)	(24,0)	(52,2)	(316,1)	(304,0)	(55,0)	(3,0)	(93,0)	(1,0)	(1,0)	
L1D -305>	(408,6)	(20,5)	(457,10)	(-8,4)	(345,1)	(-64,65)	(0,7)	(4,3)	(267,2)	(263,2)	(8,4)	(321,2)	(12,122)	(13,4)	(257,4)	(24,14)	
L1D -304>	(-7,8)	(28,38)	(74,13)	(20,11)	(304,2)	(-64,5)	(4,5)	(382,7)	(-128,71)	(174,4)	(0,24)	(7,4)	(354,38)	(-22,34)	(208,54)	(258,101)	
L1D -303>	(68,91)	(6,0)	(-64,1)	(140,1)	(-18,0)	(8,0)	(455,0)	(260,6)	(154,2)	(242,0)	(1,0)	(1,0)	(1,0)	(1,0)	(1,0)	(1,0)	
L1D -302>	(-64,4)	(1,4)	(-18,2)	(7,2)	(-9,6)	(-8,2)	(188,2)	(-3,6)	(-16,2)	(0,3)	(96,85)	(-14,2)	(158,5)	(301,4)	(302,11)	(-7,3)	
L1D -301>	(-64,54)	(2,12)	(24,24)	(0,35)	(6,8)	(457,3)	(-8,36)	(449,4)	(9,14)	(-18,7)	(1,41)	(301,9)	(123,1)	(-4,23)	(8,15)	(3,7)	
L1D -300>	(66,42)	(-22,41)	(18,41)	(338,47)	(122,8)	(-8,5)	(183,14)	(0,27)	(-64,91)	(192,6)	(1,7)	(-4,7)	(242,56)	(197,8)	(300,8)	(2,19)	
L1D -299>	(321,71)	(9,2)	(14,5)	(1,87)	(-1,10)	(0,19)	(95,1)	(246,2)	(335,1)	(-128,1)	(-76,1)	(4,1)	(121,3)	(6,2)	(448,1)	(299,1)	
L1D -298>	(254,8)	(293,1)	(-64,1)	(314,3)	(298,0)	(288,0)	(19,0)	(16,0)	(94,0)	(299,0)	(1,1)	(188,123)	(250,20)	(301,0)	(-24,0)	(0,1)	
L1D -297>	(26,6)	(288,5)	(1,125)	(0,97)	(-64,6)	(-2,4)	(457,2)	(449,1)	(264,1)	(-128,2)	(24,3)	(297,4)	(-13,2)	(459,1)	(6,5)	(2,2)	
L1D -296>	(338,17)	(42,15)	(294,18)	(26,38)	(0,22)	(267,96)	(200,45)	(-64,51)	(284,4)	(256,34)	(271,2)	(-22,106)	(296,5)	(250,17)	(-2,3)	(-128,4)	
L1D -295>	(0,26)	(409,2)	(82,2)	(-7,2)	(6,11)	(19,3)	(-16,7)	(192,2)	(32,1)	(-128,44)	(18,1)	(2,3)	(47,2)	(461,4)	(337,3)	(361,3)	
L1D -294>	(-50,1)	(0,3)	(166,117)	(67,1)	(250,104)	(454,0)	(268,1)	(364,2)	(228,2)	(14,1)	(174,1)	(44,3)	(32,19)	(72,1)	(-20,3)	(70,5)	
L1D -293>	(457,12)	(12,118)	(264,7)	(6,6)	(0,18)	(288,6)	(-9,63)	(319,111)	(1,1)	(293,17)	(317,46)	(-20,59)	(24,5)	(165,2)	(197,31)	(345,24)	
L1D -292>	(260,1)	(-13,121)	(244,1)	(-21,1)	(271,1)	(272,1)	(380,2)	(122,1)	(10,2)	(318,101)	(8,2)	(212,1)	(300,0)	(316,0)	(294,2)	(40,2)	
L1D -291>	(0,5)	(280,3)	(266,5)	(-11,105)	(291,3)	(197,2)	(288,11)	(458,31)	(287,4)	(5,20)	(255,2)	(94,9)	(-20,1)	(66,11)	(-14,7)	(82,1)	
L1D -290>	(330,13)	(42,78)	(244,2)	(2,1)	(212,9)	(0,1)	(30,16)	(485,0)	(116,103)	(10,13)	(40,5)	(-8,2)	(293,0)	(302,2)	(-1,0)	(95,0)	
L1D -289>	(0,0)	(267,0)	(457,1)	(9,20)	(98,0)	(5,1)	(256,0)	(6,0)	(-8,0)	(272,0)	(32,0)	(40,5)	(41,66)	(289,0)	(288,2)	(263,0)	
L1D -288>	(308,69)	(-28,7)	(4,15)	(288,20)	(2,7)	(8,38)	(-128,8)	(-14,1)	(136,49)	(304,6)	(9,10)	(256,8)	(10,57)	(40,92)	(1,13)	(6,4)	
L1D -287>	(2,1)	(338,1)	(328,1)	(455,1)	(287,2)	(1,1)	(8,116)	(3,12)	(7,1)	(461,1)	(6,2)	(9,1)	(0,12)	(327,2)	(122,1)	(318,1)	
L1D -286>	(-7,3)	(308,69)	(1,1)	(13,1)	(286,0)	(204,0)	(284,1)	(449,0)	(186,0)	(271,0)	(270,1)	(-10,0)	(9,0)	(134,0)	(26,0)	(-11,0)	
L1D -285>	(4,19)	(41,7)	(24,5)	(6,10)	(120,12)	(499,5)	(329,6)	(285,25)	(94,3)	(9,8)	(3,12)	(197,5)	(0,24)	(337,7)	(98,5)	(7,4)	
L1D -284>	(287,1)	(40,60)	(4,12)	(448,2)	(9,51)	(259,1)	(271,0)	(66,0)	(255,5)	(64,84)	(5,1)	(303,1)	(212,83)	(450,1)	(263,0)	(112,0)	
L1D -283>	(4,105)	(416,2)	(147,0)	(117,6)	(283,0)	(9,2)	(186,1)	(155,0)	(212,1)	(0,0)	(102,0)	(72,9)	(96,1)	(-3,0)	(64,0)	(218,0)	
L1D -282>	(292,2)	(313,2)	(1,7)	(260,2)	(197,2)	(44,61)	(41,6)	(19,1)	(98,6)	(84,0)	(188,0)	(0,1)	(318,16)	(308,73)	(106,34)	(94,0)	
L1D -281>	(42,60)	(-128,15)	(41,15)	(279,15)	(268,19)	(256,29)	(0,17)	(284,1)	(292,46)	(4,6)	(321,5)	(290,9)	(260,33)	(265,8)	(274,5)	(275,14)	
L1D -280>	(198,8)	(5,8)	(-12,71)	(8,2)	(41,97)	(-10,1)	(160,62)	(448,0)	(271,0)	(255,0)	(283,0)	(146,27)	(40,3)	(114,0)	(92,1)	(230,2)	
L1D -279>	(256,29)	(-128,17)	(274,14)	(114,1)	(-9,36)	(267,13)	(8,47)	(453,71)	(255,19)	(4,63)	(197,13)	(-3,15)	(0,112)	(40,40)	(325,11)	(279,7)	
L1D -278>	(283,0)	(312,60)	(318,0)	(-64,0)	(113,0)	(278,0)	(19,1)	(23,0)	(0,1)	(212,0)	(304,1)	(214,0)	(-6,0)	(-32,0)	(360,66)	(-2,0)	
L1D -277>	(0,91)	(277,23)	(273,36)	(283,2)	(310,1)	(361,5)	(330,1)	(163,1)	(350,1)	(322,1)	(445,1)	(368,7)	(-6,1)	(319,1)	(94,1)	(240,1)	
L1D -276>	(2,4)	(186,13)	(95,11)	(311,3)	(18,3)	(0,11)	(356,3)	(230,50)	(20,3)	(276,75)	(-92,23)	(-64,6)	(204,1)	(104,3)	(26,3)	(89,13)	
L1D -275>	(277,30)	(-64,1)	(212,85)	(275,2)	(361,2)	(322,1)	(350,1)	(308,0)	(319,0)	(58,1)	(0,1)	(320,0)	(66,0)	(317,0)	(368,0)	(41,0)	
L1D -274>	(2,20)	(-31,6)	(136,8)	(304,5)	(276,11)	(249,4)	(250,14)	(122,35)	(78,67)	(1,39)	(309,7)	(0,62)	(326,10)	(-9,5)	(8,18)	(-49,1)	
L1D -273>	(277,118)	(1,80)	(274,4)	(-20,3)	(275,3)	(280,6)	(247,5)	(279,2)	(272,34)	(17,1)	(251,19)	(259,1)	(256,5)	(0,36)	(57,1)	(283,5)	
L1D -272>	(-54,96)	(303,71)	(-10,15)	(162,1)	(80,72)	(154,1)	(312,48)	(72,31)	(294,1)	(296,1)	(289,2)	(118,3)	(2,1)	(96,4)	(268,6)	(242,2)	
L1D -271>	(272,0)	(1,0)	(0,7)	(-20,0)	(-4,1)	(6,0)	(66,0)	(50,0)	(41,77)	(54,0)	(18,0)	(8,0)	(271,2)	(-64,0)	(2,0)	(-128,1)	
L1D -270>	(-9,3)	(-21,90)	(272,0)	(448,0)	(-25,0)	(270,1)	(202,1)	(-16,3)	(0,2)	(28,2)	(350,0)	(1,10)	(222,0)	(204,0)	(462,0)	(226,1)	
L1D -269>	(26,7)	(269,16)	(3,119)	(12,3)	(-4,21)	(439,8)	(0,26)	(448,14)	(13,11)	(-80,3)	(468,1)	(16,11)	(120,2)	(-20,5)	(78,2)	(268,5)	
L1D -268>	(40,74)	(4,3)	(-52,1)	(290,15)	(200,5)	(10,1)	(19,2)	(172,59)	(356,1)	(20,2)	(198,4)	(313,2)	(268,2)	(0,2)	(2,2)	(465,0)	
L1D -267>	(158,25)	(89,7)	(337,5)	(196,7)	(240,7)	(411,12)	(420,36)	(80,11)	(412,32)	(95,65)	(-64,18)	(1,27)	(444,5)	(0,29)	(180,29)	(284,0)	
L1D -266>	(264,2)	(266,2)	(212,2)	(293,2)	(72,10)	(168,94)	(277,1)	(328,4)	(267,1)	(464,1)	(272,1)	(19,4)	(-4,1)	(0,8)	(1,4)	(96,31)	
L1D -265>	(451,2)	(284,1)	(167,97)	(274,2)	(256,6)	(465,1)	(265,2)	(266,6)	(250,1)	(293,6)	(-128,1)	(288,2)	(361,4)	(273,1)	(-4,1)	(0,4)	
L1D -264>	(0,5)	(332,4)	(285,3)	(-5,7)	(264,23)	(340,3)	(252,33)	(230,3)	(286,2)	(250,11)	(284,9)	(268,3)	(238,97)	(20,89)	(296,1)	(224,91)	
L1D -263>	(245,5)	(-20,7)	(437,19)	(2,4)	(24,18)	(26,7)	(1,18)	(0,47)	(-128,41)	(-7,1)	(307,3)	(-16,3)	(39,3)	(-64,3)	(-8,2)	(341,3)	
L1D -262>	(267,16)	(328,115)	(18,25)	(166,9)	(252,1)	(197,1)	(-8,3)	(116,48)	(20,5)	(54,15)	(268,15)	(306,15)	(260,20)	(370,22)	(234,16)	(338,88)	
L1D -261>	(40,16)	(24,8)	(270,9)	(122,45)	(26,52)	(-64,1)	(115,10)	(2,42)	(10,8)	(261,56)	(-9,42)	(0,35)	(1,23)	(183,41)	(103,21)	(377,12)	
L1D -260>	(-92,1)	(152,77)	(326,8)	(220,0)	(12,1)	(66,1)	(380,3)	(260,2)	(-78,3)	(447,1)	(-54,0)	(-12,2)	(288,8)	(-90,0)	(168,1)	(106,5)	
L1D -259>	(292,10)	(290,10)	(310,7)	(250,6)	(121,34)	(112,31)	(3,12)	(264,9)	(122,39)	(1,12)	(260,1)	(120,30)	(0,50)	(87,5)	(105,7)	(2,8)	
L1D -258>	(115,71)	(0,1)	(38,5)	(262,74)	(112,65)	(121,1)	(66,28)	(281,0)	(284,0)	(62,4)	(-10,1)	(95,1)	(216,1)	(197,2)	(260,2)	(1,2)	
L1D -257>	(0,63)	(98,77)	(120,3)	(284,4)	(260,20)	(60,91)	(256,3)	(262,1)	(99,3)	(257,5)	(272,2)	(61,12)	(122,5)	(258,11)	(292,4)	(313,3)	
L1D -256>	(251,12)	(285,31)	(84,76)	(252,9)	(1,73)	(328,5)	(312,8)	(8,8)	(265,5)	(0,33)	(258,8)	(9,1)	(260,11)	(262,7)	(264,7)	(256,11)	
L1D -255>	(246,1)	(84,87)	(0,98)	(250,44)	(255,3)	(16,2)	(26,4)	(262,1)	(7,1)	(197,5)	(8,2)	(257,1)	(-8,15)	(266,1)	(56,1)	(20,1)	
L1D -254>	(2,25)	(352,27)	(24,4)	(263,5)	(316,1)	(272,18)	(254,23)	(-12,6)	(257,4)	(114,13)	(20,44)	(8,14)	(318,3)	(-20,9)	(1,22)	(72,5)	
L1D -253>	(294,5)	(264,3)	(262,6)	(357,10)	(341,9)	(260,2)	(253,28)	(-64,9)	(69,8)	(8,37)	(114,3)	(0,62)	(208,2)	(452,13)	(3,2)	(257,5)	
L1D -252>	(113,1)	(386,101)	(2,1)	(69,1)	(7,32)	(112,5)	(106,1)	(6,7)	(122,1)	(260,1)	(285,1)	(0,1)	(9,0)	(188,18)	(154,1)	(1,0)	
L1D -251>	(-64,3)	(5,112)	(-20,1)	(-17,1)	(114,1)	(1,89)	(290,1)	(120,0)	(104,0)	(416,0)	(3,2)	(-7,0)	(251,2)	(-1,26)	(0,0)	(-9,0)	
L1D -250>	(114,5)	(254,23)	(101,15)	(244,9)	(297,4)	(121,61)	(290,71)	(94,4)	(250,126)	(2,43)	(-10,1)	(102,26)	(256,20)	(264,24)	(91,17)	(104,81)	
L1D -249>	(264,27)	(357,16)	(260,24)	(24,28)	(284,1)	(256,11)	(273,10)	(272,7)	(1,23)	(288,7)	(292,8)	(289,31)	(265,4)	(249,20)	(250,5)	(-1,7)	
L1D -248>	(-12,3)	(273,1)	(20,1)	(19,0)	(-20,0)	(190,8)	(54,2)	(288,0)	(0,0)	(16,0)	(113,1)	(41,5)	(40,75)	(-24,2)	(281,0)	(301,0)	
L1D -247>	(72,1)	(273,0)	(249,0)	(-64,0)	(294,0)	(197,0)	(226,0)	(26,0)	(194,65)	(0,0)	(55,0)	(244,0)	(44,0)	(8,0)	(1,0)	(16,0)	
L1D -246>	(-128,1)	(19,11)	(142,4)	(16,4)	(0,2)	(-16,1)	(272,6)	(-1,1)	(238,6)	(4,1)	(220,82)	(-76,124)	(8,45)	(7,49)	(1,4)	(154,6)	
L1D -245>	(250,90)	(-6,10)	(245,3)	(8,6)	(0,3)	(5,3)	(13,17)	(434,2)	(-64,3)	(24,1)	(56,9)	(438,2)	(128,2)	(1,1)	(4,2)	(16,1)	
L1D -244>	(48,9)	(5,1)	(20,0)	(108,3)	(254,0)	(18,0)	(256,0)	(19,0)	(258,1)	(268,1)	(310,74)	(9,1)	(242,11)	(338,0)	(318,0)	(-22,1)	
L1D -243>	(-9,11)	(239,1)	(4,117)	(3,3)	(5,29)	(24,1)	(319,0)	(435,1)	(0,0)	(40,0)	(41,0)	(243,0)	(279,3)	(9,34)	(-4,10)	(248,0)	
L1D -242>	(158,13)	(-17,1)	(20,19)	(2,97)	(44,48)	(194,16)	(12,1)	(0,1)	(252,2)	(-80,1)	(49,1)	(48,4)	(260,3)	(176,2)	(18,1)	(5,32)	
L1D -241>	(5,65)	(10,14)	(1,3)	(24,15)	(241,16)	(0,17)	(26,36)	(297,1)	(-9,11)	(-64,6)	(246,2)	(428,2)	(97,2)	(442,11)	(79,3)	(40,48)	
L1D -240>	(10,8)	(28,3)	(190,4)	(314,1)	(-74,3)	(64,28)	(-10,78)	(104,0)	(177,0)	(41,0)	(0,2)	(4,0)	(20,0)	(116,2)	(-2,0)	(38,3)	
L1D -239>	(19,1)	(234,1)	(239,3)	(64,0)	(1,23)	(40,106)	(4,0)	(0,10)	(-6,0)	(243,24)	(-4,0)	(-3,0)	(41,14)	(-64,7)	(-7,0)	(244,0)	
L1D -238>	(0,1)	(-10,4)	(8,5)	(20,1)	(5,4)	(-76,1)	(220,1)	(2,4)	(-56,2)	(308,8)	(44,124)	(280,9)	(198,1)	(239,0)	(298,3)	(16,8)	
L1D -237>	(13,4)	(309,7)	(251,9)	(404,15)	(384,10)	(-9,5)	(239,3)	(237,8)	(-17,3)	(-64,1)	(55,3)	(0,32)	(-20,10)	(4,3)	(377,2)	(6,4)	
L1D -236>	(-144,1)	(312,2)	(1,2)	(427,4)	(-64,12)	(0,7)	(316,4)	(423,2)	(229,1)	(278,100)	(264,31)	(236,1)	(224,4)	(84,2)	(-80,0)	(66,0)	
L1D -235>	(302,83)	(315,0)	(2,0)	(338,3)	(0,1)	(-1,0)	(235,2)	(307,2)	(-128,0)	(20,0)	(32,0)	(24,0)	(430,1)	(427,12)	(423,3)	(337,0)	
L1D -234>	(318,91)	(42,1)	(250,1)	(114,38)	(220,3)	(275,1)	(210,1)	(14,0)	(246,0)	(-28,33)	(146,15)	(8,0)	(66,0)	(198,1)	(64,0)	(-94,1)	
L1D -233>	(239,1)	(-20,6)	(24,22)	(1,12)	(227,9)	(233,41)	(26,8)	(0,21)	(236,2)	(3,3)	(235,2)	(229,4)	(309,4)	(-64,2)	(232,3)	(29,3)	
L1D -232>	(324,20)	(126,52)	(0,10)	(19,7)	(338,16)	(92,6)	(228,5)	(8,4)	(-64,6)	(9,15)	(-92,33)	(206,1)	(1,27)	(233,6)	(292,6)	(28,69)	
L1D -231>	(-16,3)	(395,89)	(231,4)	(0,23)	(284,13)	(1,7)	(226,2)	(78,2)	(19,1)	(223,1)	(227,1)	(7,3)	(150,1)	(259,1)	(79,1)	(-64,61)	
L1D -230>	(228,4)	(115,109)	(338,1)	(102,1)	(8,80)	(302,2)	(160,2)	(304,2)	(-12,7)	(44,86)	(190,8)	(-84,4)	(248,8)	(20,1)	(214,6)	(14,71)	
L1D -229>	(0,90)	(374,8)	(24,2)	(1,1)	(419,5)	(-9,30)	(197,2)	(26,1)	(223,3)	(300,2)	(229,10)	(2,1)	(4,5)	(7,4)	(231,2)	(-10,28)	
L1D -228>	(300,2)	(415,3)	(314,1)	(250,14)	(226,7)	(-18,1)	(302,4)	(292,2)	(-124,2)	(96,6)	(128,6)	(162,92)	(144,2)	(252,1)	(-40,3)	(206,103)	
L1D -227>	(1,16)	(357,14)	(227,65)	(0,15)	(-1,7)	(-20,7)	(2,5)	(-64,10)	(8,20)	(71,7)	(68,18)	(188,15)	(197,3)	(47,2)	(229,7)	(135,1)	
L1D -226>	(14,1)	(6,1)	(122,125)	(-18,1)	(24,3)	(-8,1)	(8,0)	(-128,0)	(21,3)	(187,0)	(-9,3)	(62,0)	(28,0)	(79,2)	(-134,124)	(16,0)	
L1D -225>	(225,80)	(1,59)	(0,23)	(24,66)	(227,7)	(-66,6)	(41,2)	(-2,9)	(-20,21)	(19,3)	(232,7)	(218,5)	(366,2)	(236,6)	(-64,19)	(234,11)	
L1D -224>	(-102,112)	(-184,1)	(78,13)	(227,1)	(-64,1)	(132,0)	(170,1)	(253,0)	(-96,4)	(232,0)	(176,0)	(84,0)	(68,1)	(20,0)	(224,0)	(-16,0)	
L1D -223>	(71,4)	(387,20)	(0,43)	(276,4)	(223,31)	(-184,34)	(2,12)	(227,21)	(186,3)	(-20,14)	(7,10)	(1,44)	(-16,13)	(-64,34)	(40,1)	(192,3)	
L1D -222>	(120,5)	(332,62)	(290,72)	(260,1)	(-10,2)	(226,1)	(30,4)	(112,4)	(0,1)	(-100,56)	(-80,3)	(80,55)	(328,2)	(-22,1)	(232,2)	(10,1)	
L1D -221>	(14,4)	(311,3)	(0,22)	(29,1)	(1,70)	(-175,1)	(221,13)	(-24,2)	(-1,1)	(200,1)	(22,2)	(-186,4)	(2,10)	(6,1)	(-258,1)	(17,1)	
L1D -220>	(-10,28)	(162,73)	(128,4)	(-175,3)	(-265,2)	(166,45)	(264,6)	(48,11)	(64,38)	(-14,3)	(98,9)	(-106,7)	(0,3)	(234,12)	(254,2)	(8,5)	
L1D -219>	(221,1)	(-8,6)	(-20,1)	(122,73)	(29,0)	(-64,1)	(-51,0)	(126,0)	(2,0)	(137,0)	(219,2)	(-16,0)	(-34,0)	(-1,0)	(255,0)	(0,0)	
L1D -218>	(232,78)	(-190,1)	(49,1)	(114,1)	(102,1)	(35,0)	(16,2)	(234,3)	(17,0)	(-102,0)	(154,0)	(75,0)	(-18,0)	(-2,1)	(21,1)	(-27,1)	
L1D -217>	(217,16)	(0,20)	(-36,1)	(232,7)	(209,15)	(80,4)	(26,10)	(224,7)	(29,4)	(208,8)	(1,7)	(-2,14)	(-20,5)	(-248,64)	(79,4)	(246,5)	
L1D -216>	(212,10)	(8,4)	(-256,5)	(9,1)	(-184,2)	(-64,4)	(209,3)	(-192,10)	(222,91)	(193,125)	(20,22)	(204,2)	(0,9)	(302,27)	(2,23)	(115,16)	
L1D -215>	(-241,3)	(1,8)	(-2,23)	(30,4)	(-246,4)	(276,13)	(0,88)	(-192,28)	(403,7)	(27,4)	(-128,4)	(2,13)	(-257,25)	(379,12)	(255,3)	(-193,1)	
L1D -214>	(-193,1)	(28,13)	(0,22)	(-84,1)	(222,118)	(-20,1)	(236,5)	(212,1)	(-64,5)	(188,2)	(138,1)	(18,1)	(115,4)	(112,1)	(208,3)	(94,2)	
L1D -213>	(2,1)	(0,73)	(206,0)	(7,0)	(60,0)	(8,0)	(213,1)	(220,0)	(-194,6)	(-258,0)	(1,1)	(181,0)	(-64,3)	(158,0)	(-252,0)	(-20,0)	
L1D -212>	(238,106)	(160,1)	(168,113)	(272,1)	(304,10)	(-116,8)	(214,7)	(9,3)	(-22,3)	(364,1)	(208,96)	(362,1)	(150,4)	(8,2)	(-138,7)	(-20,0)	
L1D -211>	(24,31)	(-259,3)	(1,34)	(211,25)	(-10,34)	(-175,2)	(175,65)	(6,7)	(83,6)	(2,1)	(-251,1)	(-138,3)	(-64,34)	(195,1)	(0,36)	(-198,3)	
L1D -210>	(175,8)	(112,1)	(-3,0)	(96,5)	(-14,112)	(270,1)	(14,114)	(0,0)	(150,0)	(-142,2)	(28,89)	(174,2)	(118,16)	(209,0)	(130,1)	(20,0)	
L1D -209>	(-12,33)	(83,7)	(-139,4)	(138,6)	(8,5)	(26,93)	(1,12)	(9,7)	(-256,32)	(68,4)	(19,1)	(364,8)	(0,49)	(24,18)	(-276,5)	(-9,13)	
L1D -208>	(40,24)	(194,4)	(-64,29)	(-192,11)	(258,12)	(208,15)	(41,78)	(264,1)	(5,29)	(-34,13)	(49,5)	(9,113)	(-264,5)	(0,10)	(270,16)	(116,11)	
L1D -207>	(0,8)	(40,44)	(9,98)	(404,2)	(151,1)	(-200,1)	(207,4)	(4,1)	(2,1)	(110,7)	(-232,1)	(209,0)	(192,0)	(364,3)	(149,0)	(-64,12)	
L1D -206>	(28,16)	(246,2)	(398,44)	(40,3)	(-256,2)	(-28,6)	(276,4)	(4,1)	(0,17)	(-24,65)	(3,15)	(404,110)	(48,7)	(10,17)	(206,6)	(14,1)	
L1D -205>	(0,5)	(-21,1)	(215,3)	(276,4)	(404,127)	(-248,1)	(375,5)	(205,22)	(-100,1)	(-216,1)	(384,25)	(249,3)	(-184,1)	(258,1)	(391,1)	(247,2)	
L1D -204>	(1,0)	(8,75)	(5,0)	(204,0)	(232,24)	(211,0)	(-258,0)	(168,0)	(0,0)	(158,0)	(316,0)	(-138,0)	(76,0)	(240,4)	(41,7)	(-93,0)	
L1D -203>	(-64,16)	(41,74)	(5,22)	(193,1)	(-4,1)	(40,69)	(64,0)	(85,0)	(128,0)	(9,35)	(-262,0)	(72,0)	(-235,0)	(80,0)	(-175,0)	(0,0)	
L1D -202>	(44,13)	(-9,7)	(106,4)	(193,67)	(42,115)	(6,99)	(210,88)	(4,32)	(0,1)	(5,1)	(9,85)	(308,3)	(-4,1)	(148,1)	(201,1)	(312,1)	
L1D -201>	(355,1)	(-1,11)	(63,10)	(69,10)	(208,13)	(-8,6)	(201,21)	(9,55)	(-24,8)	(209,11)	(-264,61)	(0,71)	(197,20)	(8,9)	(-5,10)	(191,6)	
L1D -200>	(198,1)	(38,1)	(240,1)	(80,85)	(6,1)	(200,1)	(-2,0)	(126,1)	(162,1)	(242,0)	(14,1)	(174,1)	(94,41)	(-62,2)	(27,2)	(-38,0)	
L1D -199>	(-2,1)	(5,102)	(-64,2)	(41,35)	(1,26)	(18,2)	(-138,12)	(-130,1)	(0,1)	(-20,0)	(9,10)	(101,0)	(-8,1)	(10,1)	(202,0)	(23,1)	
L1D -198>	(204,3)	(-128,10)	(-64,7)	(0,7)	(216,10)	(-9,125)	(198,2)	(1,5)	(234,45)	(160,10)	(40,113)	(-44,11)	(272,9)	(188,6)	(-285,1)	(-84,24)	
L1D -197>	(0,79)	(-55,1)	(-3,0)	(3,0)	(313,0)	(282,0)	(-256,0)	(194,0)	(227,1)	(-90,0)	(197,11)	(191,2)	(399,0)	(-181,1)	(-92,0)	(-10,0)	
L1D -196>	(236,1)	(38,19)	(196,2)	(202,1)	(278,1)	(238,1)	(90,1)	(130,7)	(326,2)	(-78,1)	(84,92)	(228,1)	(-76,2)	(-68,2)	(192,4)	(12,37)	
L1D -195>	(195,104)	(-228,1)	(208,1)	(289,0)	(-256,1)	(6,0)	(0,0)	(48,102)	(270,0)	(323,5)	(328,0)	(384,0)	(386,0)	(-32,3)	(-264,0)	(-1,0)	
L1D -194>	(181,4)	(0,3)	(41,5)	(308,6)	(104,96)	(152,3)	(5,2)	(8,1)	(124,2)	(150,4)	(12,1)	(-72,3)	(-22,2)	(218,6)	(-122,2)	(190,3)	
L1D -193>	(224,4)	(0,5)	(-269,1)	(233,1)	(199,4)	(-245,1)	(-8,1)	(193,3)	(208,2)	(-2,1)	(13,78)	(209,2)	(44,4)	(345,1)	(154,1)	(166,0)	
L1D -192>	(209,1)	(66,67)	(-64,1)	(-42,1)	(-203,6)	(153,1)	(140,1)	(156,7)	(33,1)	(36,1)	(80,1)	(16,2)	(208,2)	(192,13)	(154,6)	(-28,2)	
L1D -191>	(152,3)	(-64,10)	(153,98)	(-208,1)	(191,8)	(154,8)	(197,28)	(-235,9)	(0,11)	(-239,9)	(193,1)	(6,1)	(-1,1)	(44,1)	(-216,2)	(-55,1)	
L1D -190>	(0,0)	(197,1)	(188,69)	(10,0)	(106,0)	(208,2)	(254,7)	(153,5)	(132,0)	(-277,0)	(14,0)	(152,1)	(318,1)	(128,4)	(136,5)	(-64,1)	
L1D -189>	(152,6)	(81,1)	(189,1)	(151,7)	(23,1)	(13,5)	(-56,2)	(58,1)	(1,2)	(-64,3)	(-175,2)	(4,1)	(362,1)	(0,2)	(6,3)	(-9,95)	
L1D -188>	(156,1)	(164,3)	(100,76)	(106,0)	(-75,1)	(254,2)	(260,2)	(-46,1)	(286,28)	(262,7)	(20,1)	(6,0)	(28,15)	(150,8)	(228,6)	(-76,54)	
L1D -187>	(13,71)	(-64,1)	(-12,19)	(2,0)	(-228,1)	(5,0)	(9,4)	(-96,4)	(187,7)	(-206,1)	(-205,38)	(6,0)	(-7,0)	(0,0)	(149,1)	(1,0)	
L1D -186>	(-206,3)	(-122,27)	(-76,2)	(-46,8)	(212,62)	(197,1)	(214,1)	(4,1)	(267,106)	(-64,1)	(102,11)	(208,0)	(0,0)	(2,5)	(-44,1)	(-24,0)	
L1D -185>	(2,5)	(208,3)	(185,1)	(-64,0)	(-139,0)	(110,0)	(207,0)	(-8,0)	(-150,0)	(5,0)	(-1,0)	(1,0)	(235,0)	(106,94)	(138,1)	(29,0)	
L1D -184>	(110,118)	(209,2)	(-46,7)	(184,7)	(72,6)	(194,22)	(12,14)	(180,108)	(186,1)	(2,10)	(-8,10)	(68,8)	(208,1)	(212,8)	(210,2)	(-205,16)	
L1D -183>	(6,14)	(-6,1)	(-5,36)	(-289,97)	(38,21)	(183,31)	(197,14)	(-273,33)	(1,17)	(-30,4)	(7,23)	(2,55)	(-4,8)	(0,28)	(5,53)	(122,13)	
L1D -182>	(2,9)	(208,1)	(-26,4)	(106,3)	(-132,111)	(-36,112)	(-136,2)	(182,1)	(-27,2)	(-46,10)	(-66,37)	(160,4)	(24,1)	(38,45)	(-2,4)	(250,2)	
L1D -181>	(378,16)	(-1,79)	(-5,55)	(1,40)	(361,15)	(301,1)	(5,26)	(-4,4)	(-264,8)	(2,46)	(6,6)	(-64,112)	(95,50)	(181,36)	(0,8)	(265,43)	
L1D -180>	(-9,38)	(8,87)	(66,14)	(-5,2)	(82,9)	(-138,59)	(178,4)	(208,92)	(-30,91)	(7,3)	(13,81)	(2,8)	(156,1)	(1,4)	(160,23)	(112,87)	
L1D -179>	(-6,6)	(-40,88)	(-5,88)	(179,42)	(1,74)	(6,20)	(-34,1)	(34,5)	(-64,86)	(0,8)	(-4,13)	(5,45)	(2,67)	(7,13)	(51,4)	(-205,15)	
L1D -178>	(102,98)	(1,8)	(6,2)	(-1,2)	(2,10)	(-5,1)	(7,2)	(-138,1)	(48,9)	(136,94)	(-275,1)	(5,5)	(-6,1)	(-71,0)	(134,0)	(204,2)	
L1D -177>	(-64,2)	(177,2)	(1,13)	(-1,4)	(276,124)	(332,2)	(0,2)	(-5,8)	(2,4)	(272,1)	(6,3)	(286,39)	(7,2)	(-205,1)	(244,3)	(5,2)	
L1D -176>	(-5,7)	(348,23)	(3,19)	(-16,5)	(268,96)	(347,65)	(112,13)	(-172,1)	(4,46)	(344,11)	(175,117)	(2,23)	(5,6)	(44,12)	(172,16)	(63,12)	
L1D -175>	(172,28)	(4,122)	(-5,9)	(12,80)	(-169,21)	(2,31)	(-26,1)	(1,8)	(9,16)	(-8,23)	(180,9)	(177,1)	(-168,3)	(346,37)	(-64,22)	(3,8)	
L1D -174>	(168,5)	(4,38)	(344,7)	(343,1)	(-172,17)	(171,2)	(173,68)	(175,4)	(-171,1)	(2,4)	(32,16)	(-5,2)	(-3,6)	(3,10)	(1,3)	(346,15)	
L1D -173>	(-2,5)	(344,31)	(170,22)	(-171,8)	(173,4)	(174,92)	(-1,25)	(28,1)	(-169,5)	(-172,95)	(341,3)	(2,8)	(-170,3)	(172,53)	(343,5)	(4,3)	
L1D -172>	(-173,7)	(169,18)	(173,112)	(347,3)	(343,4)	(-174,1)	(345,16)	(171,22)	(1,18)	(-172,7)	(-171,30)	(-1,5)	(344,3)	(342,1)	(-90,4)	(-3,4)	
L1D -171>	(343,31)	(126,5)	(168,15)	(172,58)	(170,16)	(-3,19)	(174,20)	(2,2)	(-173,1)	(344,1)	(173,27)	(-1,93)	(1,15)	(-2,30)	(-172,16)	(0,1)	
L1D -170>	(341,5)	(342,73)	(174,21)	(173,77)	(-172,40)	(-110,51)	(172,51)	(344,38)	(-1,93)	(-3,1)	(180,55)	(1,13)	(169,9)	(171,7)	(-4,11)	(-5,5)	
L1D -169>	(168,15)	(-172,2)	(-1,44)	(171,127)	(-26,4)	(-2,24)	(-24,3)	(169,8)	(342,2)	(173,38)	(1,14)	(-3,2)	(-5,9)	(341,7)	(97,2)	(344,52)	
L1D -168>	(9,5)	(40,1)	(-4,7)	(337,5)	(158,102)	(172,24)	(-26,3)	(168,7)	(1,24)	(-30,2)	(-3,21)	(-34,2)	(343,17)	(-27,16)	(2,9)	(-5,10)	
L1D -167>	(5,33)	(2,5)	(-172,3)	(1,18)	(-1,1)	(41,69)	(86,11)	(-5,10)	(167,3)	(4,1)	(9,6)	(-291,1)	(-162,2)	(20,2)	(342,0)	(95,2)	
L1D -166>	(166,1)	(-23,1)	(-9,1)	(214,73)	(-4,2)	(6,2)	(1,20)	(-47,2)	(220,4)	(2,2)	(-5,8)	(114,2)	(5,1)	(26,2)	(136,0)	(-106,2)	
L1D -165>	(206,1)	(-293,1)	(-5,48)	(4,2)	(154,1)	(1,84)	(-1,26)	(-6,1)	(2,15)	(165,15)	(-128,5)	(172,14)	(-172,3)	(-4,4)	(-2,3)	(9,2)	
L1D -164>	(114,90)	(2,8)	(5,6)	(-64,1)	(1,4)	(120,0)	(-3,0)	(91,0)	(13,4)	(-4,4)	(169,0)	(-5,5)	(200,0)	(164,6)	(24,0)	(154,0)	
L1D -163>	(-2,1)	(55,2)	(40,41)	(1,100)	(9,30)	(20,4)	(-3,3)	(192,7)	(154,9)	(188,4)	(-20,3)	(189,10)	(193,4)	(0,16)	(5,5)	(-239,7)	
L1D -162>	(-38,67)	(238,71)	(-2,17)	(40,15)	(-18,1)	(188,8)	(9,50)	(-148,3)	(53,3)	(153,4)	(152,4)	(189,3)	(1,8)	(4,76)	(5,20)	(-4,19)	
L1D -161>	(161,3)	(-277,1)	(202,4)	(9,4)	(-301,1)	(49,4)	(-14,2)	(162,1)	(24,2)	(1,35)	(21,1)	(20,2)	(44,116)	(84,1)	(10,2)	(5,54)	
L1D -160>	(1,18)	(392,1)	(24,3)	(128,7)	(3,1)	(-64,124)	(167,3)	(2,2)	(28,1)	(0,3)	(4,2)	(-100,116)	(22,1)	(12,1)	(188,1)	(246,0)	
L1D -159>	(9,14)	(18,1)	(-99,38)	(-236,1)	(41,78)	(5,6)	(-98,3)	(0,1)	(156,1)	(-4,2)	(3,4)	(1,22)	(95,20)	(-211,1)	(-3,2)	(-24,2)	
L1D -158>	(-9,4)	(-30,2)	(41,47)	(1,18)	(-3,50)	(-39,32)	(144,4)	(66,6)	(0,6)	(188,125)	(5,18)	(9,6)	(-64,4)	(152,6)	(40,67)	(48,2)	
L1D -157>	(6,1)	(10,3)	(-2,1)	(24,3)	(1,81)	(-309,1)	(5,7)	(201,2)	(3,6)	(7,1)	(0,1)	(-6,1)	(-3,3)	(8,1)	(-64,5)	(9,4)	
L1D -156>	(28,4)	(-1,1)	(-64,3)	(-26,5)	(-100,67)	(136,47)	(10,4)	(18,3)	(242,52)	(188,1)	(126,1)	(-10,1)	(104,4)	(1,5)	(-6,2)	(102,2)	
L1D -155>	(1,15)	(5,79)	(-64,11)	(-1,6)	(-7,10)	(14,4)	(10,106)	(142,6)	(-3,8)	(-237,5)	(-128,8)	(4,1)	(9,24)	(7,20)	(157,11)	(155,5)	
L1D -154>	(41,25)	(5,8)	(34,116)	(140,6)	(10,8)	(210,117)	(96,18)	(-12,104)	(9,1)	(118,4)	(156,7)	(8,4)	(-102,13)	(260,1)	(188,3)	(122,7)	
L1D -153>	(187,10)	(24,21)	(-130,9)	(-158,3)	(163,121)	(10,114)	(153,12)	(0,13)	(-139,52)	(7,12)	(14,7)	(155,14)	(-15,5)	(132,3)	(-8,6)	(184,1)	
L1D -152>	(-122,124)	(96,2)	(-237,1)	(0,1)	(24,2)	(-136,2)	(390,1)	(-3,1)	(7,0)	(2,2)	(10,4)	(88,1)	(-100,1)	(-15,1)	(14,0)	(-8,0)	
L1D -151>	(0,19)	(-1,5)	(-309,4)	(148,5)	(-20,82)	(-8,21)	(24,34)	(153,35)	(-19,12)	(-11,8)	(-21,26)	(4,67)	(-5,42)	(2,31)	(-18,1)	(-307,7)	
L1D -150>	(206,1)	(-2,0)	(-64,1)	(210,1)	(208,0)	(-8,0)	(-38,0)	(224,0)	(28,0)	(138,1)	(-50,1)	(220,1)	(7,3)	(42,2)	(352,64)	(4,1)	
L1D -149>	(9,1)	(2,1)	(3,2)	(-3,1)	(106,1)	(-139,6)	(14,1)	(-9,2)	(88,97)	(-154,2)	(-8,3)	(13,1)	(15,3)	(6,2)	(7,6)	(8,1)	
L1D -148>	(326,59)	(2,1)	(-128,2)	(216,4)	(-122,71)	(150,0)	(214,0)	(206,3)	(-16,0)	(212,5)	(3,0)	(-100,1)	(-17,0)	(258,1)	(7,1)	(-19,0)	
L1D -147>	(24,4)	(141,68)	(1,6)	(2,3)	(-19,11)	(-128,5)	(29,1)	(5,42)	(8,2)	(-125,24)	(-33,17)	(-12,56)	(-2,4)	(7,12)	(-15,5)	(-20,6)	
L1D -146>	(-100,48)	(0,4)	(-20,5)	(-128,1)	(-64,4)	(106,6)	(148,50)	(-19,12)	(-8,2)	(1,32)	(9,66)	(-3,18)	(2,23)	(-2,2)	(-33,8)	(-15,4)	
L1D -145>	(0,72)	(-14,1)	(-17,0)	(-3,0)	(12,0)	(2,5)	(-15,0)	(1,2)	(8,0)	(135,0)	(137,0)	(82,0)	(-1,0)	(-20,1)	(48,0)	(212,0)	
L1D -144>	(38,100)	(-170,16)	(236,101)	(137,2)	(7,12)	(70,1)	(-26,3)	(-5,2)	(143,2)	(5,5)	(0,10)	(-25,2)	(-72,3)	(-64,1)	(66,79)	(-128,2)	
L1D -143>	(135,3)	(8,68)	(0,7)	(-25,2)	(-1,4)	(-16,2)	(-19,23)	(41,2)	(167,1)	(3,3)	(143,2)	(2,1)	(-8,1)	(-21,115)	(-20,8)	(-15,2)	
L1D -142>	(-19,10)	(-22,1)	(154,11)	(-178,124)	(-20,5)	(0,2)	(84,1)	(18,5)	(-96,3)	(32,2)	(156,3)	(-76,5)	(232,4)	(11,1)	(-6,6)	(1,1)	
L1D -141>	(1,58)	(2,30)	(135,8)	(340,1)	(132,14)	(0,66)	(-16,58)	(8,19)	(-64,12)	(-20,106)	(-8,9)	(134,13)	(136,12)	(11,14)	(-27,8)	(-19,103)	
L1D -140>	(-14,70)	(-92,7)	(26,91)	(-21,86)	(-27,2)	(50,63)	(150,28)	(102,7)	(-50,38)	(11,3)	(-20,7)	(8,2)	(96,5)	(-26,1)	(-19,7)	(184,2)	
L1D -139>	(-4,44)	(1,64)	(-15,2)	(-10,2)	(0,2)	(-128,1)	(11,1)	(-19,3)	(-20,7)	(-1,5)	(135,0)	(137,1)	(12,2)	(136,0)	(-25,5)	(-5,30)	
L1D -138>	(337,32)	(161,9)	(84,7)	(66,7)	(134,2)	(236,79)	(159,2)	(232,94)	(-6,95)	(330,4)	(-98,73)	(-154,1)	(-19,11)	(-12,3)	(136,1)	(254,26)	
L1D -137>	(-128,9)	(0,22)	(137,7)	(2,9)	(-27,4)	(-2,6)	(133,7)	(-3,4)	(-19,25)	(200,1)	(-20,16)	(-7,101)	(232,18)	(-33,26)	(-16,8)	(-8,3)	
L1D -136>	(-180,119)	(-13,116)	(144,4)	(-20,12)	(136,2)	(-19,5)	(16,3)	(0,8)	(-10,2)	(14,2)	(126,3)	(42,5)	(254,2)	(-94,4)	(-108,1)	(-84,1)	
L1D -135>	(0,27)	(-169,1)	(-16,19)	(2,12)	(134,2)	(-19,25)	(-7,3)	(-1,11)	(-8,64)	(1,6)	(-24,0)	(-20,56)	(-65,7)	(133,13)	(-3,5)	(135,16)	
L1D -134>	(162,61)	(-13,72)	(-3,3)	(-16,2)	(22,56)	(122,1)	(0,2)	(-15,1)	(-1,1)	(-19,2)	(13,1)	(-20,10)	(1,1)	(118,2)	(216,1)	(298,84)	
L1D -133>	(-4,1)	(-19,3)	(132,65)	(133,3)	(130,42)	(0,3)	(1,1)	(-1,1)	(-27,0)	(-7,0)	(-16,2)	(-11,0)	(7,0)	(-20,6)	(13,1)	(2,4)	
L1D -132>	(267,1)	(-16,2)	(120,1)	(82,95)	(110,77)	(-19,13)	(-20,11)	(130,10)	(-42,4)	(132,19)	(-108,6)	(-73,1)	(-82,14)	(6,3)	(70,71)	(0,1)	
L1D -131>	(-10,5)	(-7,1)	(8,13)	(-6,2)	(0,2)	(9,4)	(-20,71)	(1,6)	(-8,10)	(136,14)	(-128,3)	(251,2)	(-5,4)	(-16,21)	(2,2)	(6,1)	
L1D -130>	(14,6)	(122,2)	(-92,13)	(-14,13)	(130,1)	(-16,114)	(20,5)	(-20,13)	(-128,2)	(56,125)	(10,2)	(268,3)	(-22,1)	(188,110)	(12,2)	(9,2)	
L1D -129>	(-8,2)	(0,10)	(-74,1)	(-16,7)	(97,1)	(-1,7)	(86,1)	(78,3)	(27,2)	(46,2)	(164,1)	(129,107)	(69,1)	(-47,2)	(323,1)	(15,2)	
L1D -128>	(15,8)	(-54,1)	(274,4)	(-1,72)	(13,2)	(142,50)	(16,2)	(70,5)	(6,47)	(0,3)	(7,7)	(267,27)	(258,2)	(8,4)	(128,13)	(-16,3)	
L1D -127>	(166,74)	(41,6)	(5,0)	(40,8)	(127,0)	(1,0)	(-22,0)	(123,0)	(9,22)	(45,0)	(38,0)	(2,1)	(-140,0)	(-88,1)	(184,1)	(122,0)	
L1D -126>	(64,1)	(-1,119)	(-27,6)	(-8,1)	(-66,2)	(6,3)	(9,11)	(70,14)	(172,76)	(-62,1)	(-46,90)	(16,1)	(96,1)	(24,71)	(32,1)	(178,4)	
L1D -125>	(0,28)	(1,6)	(166,9)	(165,12)	(3,20)	(-3,1)	(8,72)	(125,8)	(-1,4)	(4,96)	(-43,5)	(9,6)	(226,38)	(129,77)	(240,45)	(-8,17)	
L1D -124>	(-2,0)	(216,69)	(12,0)	(-13,74)	(125,0)	(48,0)	(21,1)	(256,0)	(1,0)	(112,2)	(50,0)	(-26,1)	(2,0)	(220,1)	(130,60)	(-80,0)	
L1D -123>	(123,38)	(332,96)	(125,13)	(-8,17)	(1,7)	(0,12)	(41,108)	(64,7)	(-7,76)	(105,66)	(-5,7)	(2,5)	(-72,6)	(4,15)	(-70,27)	(-71,2)	
L1D -122>	(40,29)	(4,24)	(78,10)	(-96,68)	(64,1)	(9,21)	(180,59)	(-3,8)	(5,40)	(218,64)	(-28,11)	(-94,62)	(150,45)	(154,62)	(332,67)	(44,57)	
L1D -121>	(80,3)	(-9,5)	(-27,106)	(76,1)	(64,3)	(-1,1)	(236,2)	(9,67)	(-26,3)	(-3,5)	(4,5)	(121,1)	(-4,75)	(112,4)	(144,1)	(44,1)	
L1D -120>	(4,1)	(-14,10)	(9,11)	(1,1)	(-24,3)	(24,68)	(103,3)	(-174,4)	(-18,1)	(0,5)	(-15,2)	(-23,1)	(-16,33)	(2,4)	(-25,1)	(-94,2)	
L1D -119>	(5,8)	(3,1)	(18,2)	(0,2)	(-3,2)	(240,0)	(119,0)	(25,92)	(2,2)	(6,0)	(117,2)	(-4,1)	(4,1)	(9,12)	(1,0)	(-1,0)	
L1D -118>	(5,12)	(7,3)	(34,2)	(149,5)	(144,10)	(68,80)	(-88,5)	(1,2)	(-1,2)	(113,1)	(14,4)	(120,2)	(-66,3)	(61,1)	(-102,63)	(41,56)	
L1D -117>	(130,5)	(71,12)	(82,12)	(-3,8)	(78,8)	(-39,7)	(-9,9)	(-5,13)	(1,11)	(5,1)	(-1,13)	(121,50)	(117,2)	(40,119)	(0,6)	(-44,112)	
L1D -116>	(-194,0)	(77,1)	(218,5)	(122,8)	(-197,3)	(85,1)	(0,1)	(81,1)	(212,2)	(118,65)	(24,2)	(-102,3)	(-7,1)	(110,1)	(216,1)	(136,1)	
L1D -115>	(87,77)	(-76,0)	(110,0)	(80,1)	(8,0)	(7,0)	(129,0)	(-5,1)	(0,0)	(112,0)	(-16,0)	(17,0)	(-1,2)	(115,0)	(214,0)	(-41,1)	
L1D -114>	(130,109)	(-42,1)	(64,1)	(-94,84)	(1,4)	(115,1)	(108,1)	(-4,1)	(-7,3)	(120,2)	(-200,1)	(82,2)	(122,2)	(-66,1)	(112,1)	(-96,5)	
L1D -113>	(1,4)	(64,76)	(0,4)	(8,1)	(-9,9)	(9,2)	(2,1)	(78,2)	(5,18)	(-5,1)	(-48,0)	(67,2)	(-1,4)	(113,1)	(-107,0)	(41,59)	
L1D -112>	(86,1)	(-122,84)	(175,104)	(-100,26)	(192,4)	(-88,17)	(66,7)	(49,37)	(130,2)	(-72,11)	(-56,13)	(-16,23)	(-220,9)	(64,19)	(180,46)	(-1,3)	
L1D -111>	(102,8)	(-6,13)	(0,33)	(93,76)	(-1,115)	(45,41)	(8,54)	(98,19)	(6,9)	(62,1)	(103,5)	(100,9)	(111,30)	(-5,8)	(-8,74)	(64,51)	
L1D -110>	(478,1)	(127,89)	(0,6)	(-8,2)	(-108,85)	(-32,3)	(-16,79)	(100,4)	(218,3)	(180,2)	(-48,2)	(302,77)	(118,103)	(262,4)	(-20,3)	(234,14)	
L1D -109>	(179,19)	(-8,42)	(204,106)	(8,12)	(-2,4)	(0,21)	(-9,6)	(1,5)	(-81,7)	(47,1)	(100,3)	(99,35)	(-1,13)	(18,8)	(-7,3)	(96,5)	
L1D -108>	(0,13)	(118,115)	(78,43)	(82,74)	(15,8)	(210,89)	(-6,4)	(-54,23)	(97,1)	(10,2)	(-14,1)	(96,37)	(290,4)	(-10,17)	(74,5)	(212,4)	
L1D -107>	(108,96)	(-16,2)	(39,3)	(-8,3)	(-3,2)	(2,3)	(1,2)	(0,12)	(-106,15)	(130,2)	(-14,3)	(8,1)	(107,21)	(-54,5)	(-24,5)	(9,1)	
L1D -106>	(105,1)	(268,4)	(80,2)	(-50,10)	(96,86)	(-94,68)	(260,8)	(106,2)	(-6,2)	(-138,1)	(202,0)	(14,3)	(-90,1)	(-126,1)	(122,15)	(76,6)	
L1D -105>	(-20,103)	(-328,34)	(0,4)	(2,0)	(129,0)	(-36,0)	(106,0)	(-1,5)	(-4,11)	(39,1)	(105,0)	(42,0)	(86,3)	(-2,0)	(1,0)	(1,0)	
L1D -104>	(-7,1)	(96,113)	(9,1)	(-24,5)	(1,9)	(184,10)	(193,1)	(136,22)	(-2,4)	(64,5)	(-14,1)	(66,33)	(130,2)	(200,7)	(72,5)	(79,1)	
L1D -103>	(-1,29)	(60,75)	(103,4)	(27,1)	(80,1)	(0,5)	(-10,1)	(15,8)	(129,2)	(7,1)	(-48,0)	(35,0)	(-58,0)	(169,0)	(130,0)	(-9,0)	
L1D -102>	(86,89)	(0,4)	(116,18)	(184,9)	(74,20)	(-234,7)	(-80,12)	(212,1)	(-36,42)	(178,7)	(326,4)	(66,69)	(58,5)	(4,1)	(234,48)	(256,2)	
L1D -101>	(-2,5)	(-257,4)	(1,28)	(-16,10)	(-121,23)	(0,33)	(64,24)	(-264,23)	(-24,3)	(-1,66)	(-7,9)	(40,1)	(-21,2)	(3,3)	(101,16)	(8,13)	
L1D -100>	(308,74)	(-8,41)	(108,75)	(-21,1)	(220,55)	(2,1)	(-4,5)	(14,1)	(276,2)	(-128,2)	(11,6)	(288,58)	(-64,1)	(100,1)	(28,1)	(-52,1)	
L1D -99>	(0,64)	(-32,1)	(62,97)	(24,26)	(99,34)	(98,4)	(89,8)	(-123,8)	(110,1)	(78,15)	(60,8)	(71,1)	(87,3)	(31,1)	(35,0)	(61,4)	
L1D -98>	(0,37)	(99,1)	(98,35)	(97,5)	(66,8)	(60,49)	(-1,12)	(84,23)	(178,7)	(28,8)	(-188,11)	(194,6)	(-92,51)	(-112,22)	(-22,116)	(78,37)	
L1D -97>	(-1,1)	(29,3)	(-186,9)	(-122,1)	(98,8)	(68,0)	(35,1)	(31,0)	(-170,87)	(-7,2)	(32,0)	(-118,0)	(-6,0)	(64,1)	(7,0)	(1,0)	
L1D -96>	(132,9)	(20,122)	(-4,37)	(16,13)	(130,111)	(-63,78)	(107,2)	(-98,24)	(216,119)	(-218,1)	(142,3)	(-112,13)	(100,101)	(208,12)	(-9,5)	(148,6)	
L1D -95>	(99,113)	(299,5)	(27,1)	(-84,1)	(9,2)	(11,5)	(19,1)	(29,1)	(17,1)	(2,2)	(-91,1)	(0,1)	(361,5)	(23,3)	(-1,1)	(1,0)	
L1D -94>	(8,0)	(28,55)	(110,0)	(-6,15)	(2,62)	(198,6)	(115,0)	(30,1)	(67,0)	(-70,70)	(-32,37)	(216,7)	(-244,2)	(39,0)	(-4,10)	(9,2)	
L1D -93>	(-2,64)	(64,9)	(107,3)	(1,16)	(-8,116)	(8,2)	(9,28)	(94,16)	(-275,3)	(0,12)	(10,1)	(222,3)	(6,5)	(-52,5)	(-197,7)	(-7,1)	
L1D -92>	(210,77)	(24,57)	(64,8)	(-14,7)	(20,112)	(-30,114)	(28,32)	(160,12)	(84,74)	(18,10)	(-50,16)	(26,18)	(52,24)	(38,1)	(96,113)	(-28,7)	
L1D -91>	(-1,2)	(9,3)	(96,79)	(251,4)	(-40,2)	(8,12)	(175,3)	(4,8)	(-277,3)	(34,1)	(85,1)	(64,17)	(1,17)	(56,1)	(0,1)	(7,1)	
L1D -90>	(96,1)	(220,77)	(84,1)	(68,1)	(254,4)	(-4,6)	(-8,41)	(91,17)	(260,3)	(-174,2)	(88,3)	(184,6)	(-34,87)	(182,1)	(-176,3)	(120,4)	
L1D -89>	(1,27)	(12,15)	(-18,4)	(98,7)	(42,1)	(80,112)	(15,28)	(251,3)	(0,16)	(-48,3)	(4,14)	(6,5)	(9,3)	(64,14)	(-8,60)	(-3,10)	
L1D -88>	(48,93)	(64,11)	(-246,7)	(-124,1)	(-8,56)	(6,4)	(-9,65)	(-120,97)	(8,2)	(28,108)	(-12,87)	(232,13)	(137,2)	(72,98)	(0,6)	(-32,79)	
L1D -87>	(98,81)	(0,55)	(224,4)	(8,5)	(90,1)	(-2,1)	(6,1)	(-1,1)	(-4,1)	(32,3)	(-86,1)	(70,2)	(-14,2)	(80,2)	(1,4)	(-112,0)	
L1D -86>	(9,62)	(-58,77)	(64,2)	(40,15)	(4,4)	(54,1)	(41,11)	(-44,6)	(-1,12)	(-26,4)	(-88,56)	(214,3)	(-294,72)	(168,27)	(-14,4)	(10,7)	
L1D -85>	(-1,76)	(-16,1)	(9,16)	(4,6)	(12,33)	(-9,1)	(45,1)	(0,1)	(22,1)	(107,2)	(106,0)	(1,3)	(-2,1)	(-8,15)	(82,1)	(64,3)	
L1D -84>	(172,77)	(-238,13)	(302,120)	(-204,25)	(125,4)	(109,20)	(225,10)	(98,10)	(13,77)	(197,9)	(-102,7)	(18,101)	(82,10)	(314,12)	(224,1)	(-236,30)	
L1D -83>	(81,120)	(-1,65)	(83,62)	(196,1)	(108,0)	(-5,1)	(-9,5)	(0,3)	(69,2)	(345,0)	(-4,0)	(8,0)	(64,3)	(47,0)	(6,0)	(385,0)	
L1D -82>	(-3,49)	(9,10)	(-7,1)	(64,1)	(88,3)	(2,25)	(1,55)	(-2,9)	(84,81)	(-222,1)	(-41,3)	(117,6)	(60,23)	(246,4)	(30,1)	(78,19)	
L1D -81>	(4,53)	(81,111)	(226,6)	(-9,1)	(1,2)	(9,73)	(80,1)	(-4,1)	(5,20)	(72,81)	(79,8)	(-7,4)	(116,8)	(78,1)	(-2,5)	(40,1)	
L1D -80>	(96,52)	(246,1)	(138,100)	(16,5)	(0,14)	(188,8)	(260,48)	(115,11)	(82,7)	(-7,52)	(36,3)	(80,1)	(64,23)	(4,1)	(1,7)	(318,3)	
L1D -79>	(83,101)	(132,1)	(77,14)	(-1,3)	(3,0)	(-2,21)	(75,1)	(64,69)	(-3,0)	(-4,6)	(161,0)	(5,0)	(61,0)	(1,1)	(4,0)	(22,2)	
L1D -78>	(80,36)	(-1,21)	(60,58)	(89,1)	(2,10)	(99,3)	(1,110)	(-3,53)	(172,7)	(0,43)	(98,9)	(113,5)	(338,3)	(270,3)	(18,9)	(-41,11)	
L1D -77>	(13,100)	(-39,3)	(41,9)	(81,3)	(-38,1)	(-3,30)	(64,2)	(197,1)	(-4,38)	(40,99)	(0,2)	(-1,58)	(-9,12)	(1,25)	(14,10)	(-109,1)	
L1D -76>	(-130,15)	(136,1)	(129,8)	(-138,88)	(-13,92)	(338,85)	(37,2)	(314,3)	(-1,3)	(1,1)	(-48,99)	(0,3)	(-3,3)	(64,5)	(12,2)	(98,5)	
L1D -75>	(1,9)	(84,4)	(-1,15)	(0,40)	(4,4)	(18,4)	(24,4)	(32,2)	(103,3)	(361,5)	(-9,2)	(58,2)	(75,4)	(9,1)	(129,70)	(64,14)	
L1D -74>	(-3,10)	(17,2)	(2,1)	(-128,72)	(-7,2)	(-36,35)	(44,27)	(-2,27)	(314,59)	(6,69)	(-168,6)	(72,20)	(14,2)	(84,2)	(-112,7)	(129,5)	
L1D -73>	(20,1)	(130,1)	(67,103)	(1,5)	(12,0)	(-21,3)	(9,2)	(-20,4)	(-2,4)	(80,0)	(13,3)	(64,6)	(-115,0)	(16,0)	(-1,3)	(-177,1)	
L1D -72>	(15,10)	(34,17)	(64,112)	(-4,2)	(-142,1)	(1,4)	(-122,90)	(-7,100)	(-92,1)	(-95,2)	(72,109)	(168,7)	(0,8)	(-3,10)	(-1,5)	(-16,72)	
L1D -71>	(-3,126)	(129,15)	(69,1)	(1,113)	(0,7)	(24,3)	(65,54)	(-5,25)	(-21,5)	(-1,15)	(-20,5)	(64,4)	(130,14)	(20,3)	(-6,7)	(-10,5)	
L1D -70>	(-70,72)	(5,7)	(30,37)	(35,53)	(28,71)	(64,1)	(1,4)	(-3,9)	(-7,14)	(0,29)	(-85,8)	(-188,8)	(118,7)	(129,112)	(-1,26)	(336,71)	
L1D -69>	(1,53)	(4,1)	(22,26)	(136,2)	(-1,110)	(64,1)	(207,1)	(0,1)	(73,4)	(12,123)	(95,2)	(14,1)	(2,2)	(-85,4)	(69,1)	(67,7)	
L1D -68>	(-7,3)	(-2,95)	(-8,20)	(72,75)	(1,2)	(20,1)	(170,2)	(-4,19)	(308,5)	(-6,4)	(11,8)	(-3,59)	(66,1)	(69,5)	(186,5)	(48,8)	
L1D -67>	(-138,123)	(-10,1)	(1,79)	(-3,38)	(-8,10)	(69,8)	(-91,1)	(72,0)	(2,59)	(67,3)	(-2,0)	(61,2)	(-1,41)	(13,0)	(-6,4)	(12,33)	
L1D -66>	(298,94)	(-10,14)	(96,19)	(-28,12)	(194,94)	(92,21)	(-176,71)	(-4,15)	(12,102)	(-26,114)	(-148,10)	(84,26)	(184,100)	(-45,14)	(-228,1)	(-7,67)	
L1D -65>	(64,105)	(-154,15)	(-6,5)	(65,6)	(1,16)	(0,17)	(16,1)	(-13,11)	(-17,4)	(-1,4)	(2,44)	(4,4)	(37,4)	(-32,15)	(-116,34)	(-71,2)	
L1D -64>	(320,20)	(66,7)	(62,123)	(74,19)	(72,73)	(26,110)	(304,1)	(0,22)	(75,110)	(64,49)	(90,85)	(-64,58)	(-12,16)	(68,10)	(-244,108)	(256,18)	
L1D -63>	(-177,1)	(141,103)	(95,77)	(64,4)	(12,3)	(5,2)	(-184,14)	(9,3)	(100,1)	(2,1)	(-12,1)	(191,3)	(207,0)	(1,11)	(200,0)	(0,0)	
L1D -62>	(2,84)	(4,60)	(-32,90)	(-14,3)	(-2,64)	(-190,73)	(-6,9)	(90,43)	(56,22)	(-72,1)	(-1,56)	(242,2)	(62,83)	(118,63)	(-8,3)	(54,26)	
L1D -61>	(1,28)	(-8,2)	(58,111)	(0,1)	(-1,5)	(-276,3)	(5,10)	(57,1)	(-197,1)	(12,17)	(10,3)	(-84,7)	(192,2)	(-186,2)	(-10,1)	(-122,2)	
L1D -60>	(-140,76)	(0,15)	(60,46)	(63,1)	(-2,6)	(-8,96)	(-4,4)	(-10,4)	(62,9)	(-196,92)	(-90,7)	(-5,3)	(64,11)	(99,18)	(-1,11)	(52,7)	
L1D -59>	(48,40)	(-34,17)	(63,11)	(0,31)	(-1,15)	(65,52)	(1,42)	(64,112)	(-41,9)	(-10,9)	(-7,46)	(9,38)	(112,110)	(59,30)	(172,11)	(-12,1)	
L1D -58>	(-126,74)	(48,28)	(115,97)	(-62,58)	(64,68)	(-188,75)	(-58,20)	(118,25)	(326,98)	(-18,71)	(2,11)	(56,14)	(-42,84)	(-2,52)	(-30,1)	(58,24)	
L1D -57>	(0,9)	(57,95)	(-20,23)	(47,37)	(64,27)	(55,25)	(61,13)	(2,2)	(9,1)	(-1,13)	(-21,3)	(58,6)	(-72,14)	(1,3)	(-2,14)	(-23,22)	
L1D -56>	(56,4)	(294,46)	(64,51)	(-4,3)	(16,10)	(214,1)	(1,4)	(192,6)	(33,2)	(0,9)	(-126,1)	(-3,1)	(-2,115)	(66,4)	(45,5)	(109,2)	
L1D -55>	(-74,4)	(-2,66)	(45,5)	(-4,2)	(57,2)	(191,1)	(64,4)	(380,1)	(-154,1)	(40,0)	(133,5)	(53,2)	(32,3)	(1,2)	(55,9)	(108,3)	
L1D -54>	(2,1)	(-5,1)	(318,84)	(1,6)	(76,9)	(-27,15)	(54,17)	(31,9)	(3,1)	(107,10)	(-24,3)	(-132,1)	(-98,3)	(38,7)	(146,4)	(39,1)	
L1D -53>	(62,28)	(54,50)	(55,1)	(51,23)	(53,108)	(0,7)	(1,16)	(-6,21)	(43,24)	(146,34)	(4,35)	(42,39)	(64,11)	(-76,24)	(20,43)	(161,5)	
L1D -52>	(54,4)	(-98,18)	(57,1)	(-46,14)	(5,5)	(62,13)	(-104,5)	(-32,13)	(3,3)	(114,77)	(13,19)	(-7,39)	(12,21)	(50,11)	(0,8)	(42,11)	
L1D -51>	(100,1)	(30,1)	(64,14)	(-1,43)	(-269,1)	(28,9)	(104,7)	(42,6)	(36,1)	(51,5)	(-2,2)	(-8,118)	(41,1)	(67,1)	(49,12)	(0,2)	
L1D -50>	(-5,5)	(272,82)	(-9,3)	(10,7)	(22,15)	(1,3)	(13,4)	(56,15)	(200,42)	(14,8)	(4,6)	(3,11)	(122,1)	(16,12)	(-3,16)	(136,65)	
L1D -49>	(-5,110)	(15,14)	(98,1)	(-1,20)	(47,8)	(-9,4)	(-10,118)	(30,2)	(1,65)	(6,2)	(12,29)	(-20,1)	(2,16)	(64,16)	(-2,5)	(-3,1)	
L1D -48>	(16,29)	(180,1)	(-9,113)	(46,24)	(-10,14)	(-250,1)	(-354,29)	(18,1)	(0,5)	(-2,30)	(131,1)	(10,8)	(-148,1)	(-80,27)	(-106,24)	(4,1)	
L1D -47>	(0,78)	(36,1)	(2,18)	(57,14)	(4,4)	(1,24)	(58,1)	(26,6)	(51,12)	(48,1)	(32,1)	(47,18)	(7,1)	(-285,1)	(-108,5)	(49,61)	
L1D -46>	(-1,22)	(41,38)	(-3,97)	(1,36)	(-92,18)	(-13,2)	(266,17)	(50,16)	(-4,5)	(-5,5)	(13,1)	(-108,15)	(14,7)	(127,4)	(45,7)	(-234,8)	
L1D -45>	(64,1)	(-4,41)	(-43,19)	(5,17)	(-34,18)	(7,5)	(4,8)	(-5,75)	(9,44)	(62,13)	(55,6)	(-2,49)	(43,69)	(93,31)	(-9,80)	(1,79)	
L1D -44>	(46,78)	(84,64)	(54,5)	(48,1)	(1,45)	(5,4)	(64,7)	(43,8)	(79,9)	(-6,12)	(-3,6)	(45,8)	(85,2)	(-36,9)	(-1,28)	(-15,6)	
L1D -43>	(-12,3)	(0,5)	(41,19)	(-92,13)	(67,1)	(-3,37)	(47,125)	(1,12)	(-2,61)	(43,2)	(2,3)	(-16,29)	(33,16)	(-7,8)	(48,1)	(53,9)	
L1D -42>	(-4,13)	(-17,3)	(1,14)	(-3,58)	(2,99)	(-1,13)	(95,2)	(53,5)	(-5,13)	(6,10)	(138,54)	(-8,9)	(-40,3)	(33,6)	(52,11)	(21,1)	
L1D -41>	(52,4)	(-4,15)	(5,24)	(-1,5)	(81,2)	(9,27)	(25,8)	(0,4)	(-2,3)	(154,1)	(2,2)	(119,13)	(-9,108)	(40,6)	(1,21)	(-3,8)	
L1D -40>	(34,43)	(-152,45)	(4,75)	(-196,8)	(0,10)	(-16,15)	(-5,47)	(9,9)	(-202,34)	(-9,1)	(15,4)	(81,7)	(52,28)	(-2,32)	(1,8)	(-60,12)	
L1D -39>	(38,3)	(44,86)	(0,8)	(-78,6)	(49,9)	(34,8)	(-20,63)	(50,7)	(4,2)	(1,27)	(64,4)	(48,0)	(84,21)	(47,2)	(29,4)	(6,2)	
L1D -38>	(-62,15)	(-86,56)	(-350,64)	(32,11)	(36,21)	(-66,66)	(14,70)	(1,77)	(34,23)	(-148,59)	(-5,18)	(48,3)	(-18,31)	(4,9)	(55,32)	(38,1)	
L1D -37>	(46,1)	(40,12)	(-20,3)	(1,7)	(48,1)	(34,8)	(86,1)	(36,5)	(9,10)	(-1,8)	(14,2)	(15,1)	(-2,5)	(0,4)	(-22,21)	(5,84)	
L1D -36>	(48,116)	(0,1)	(-67,115)	(5,27)	(66,102)	(38,19)	(-1,34)	(-290,75)	(-3,7)	(13,6)	(56,50)	(36,14)	(40,51)	(-72,12)	(9,15)	(1,4)	
L1D -35>	(-3,106)	(4,1)	(57,1)	(1,22)	(-82,4)	(76,1)	(35,1)	(-1,54)	(21,14)	(34,1)	(-80,5)	(-45,2)	(-81,3)	(0,2)	(-171,2)	(9,4)	
L1D -34>	(-7,15)	(-92,86)	(-4,62)	(64,10)	(-25,111)	(-2,11)	(-106,8)	(-234,85)	(11,8)	(32,61)	(87,1)	(-3,4)	(3,1)	(4,13)	(0,10)	(1,1)	
L1D -33>	(33,6)	(47,2)	(-20,3)	(0,4)	(5,1)	(10,3)	(1,1)	(37,110)	(19,4)	(18,1)	(-248,1)	(-1,10)	(48,1)	(64,1)	(2,3)	(43,7)	
L1D -32>	(0,15)	(36,102)	(58,69)	(1,9)	(10,58)	(-2,29)	(-8,11)	(-1,8)	(14,55)	(8,7)	(-27,13)	(264,21)	(-66,60)	(41,2)	(230,31)	(-240,42)	
L1D -31>	(-3,65)	(1,9)	(-70,8)	(30,14)	(-239,8)	(4,41)	(40,8)	(11,3)	(38,1)	(5,43)	(7,23)	(9,22)	(59,7)	(-8,34)	(64,1)	(-28,5)	
L1D -30>	(-6,13)	(1,20)	(0,11)	(30,4)	(124,94)	(-5,57)	(46,20)	(-8,26)	(-2,1)	(-126,65)	(112,77)	(362,94)	(-38,94)	(-62,31)	(-4,81)	(31,1)	
L1D -29>	(43,4)	(31,124)	(18,8)	(1,18)	(6,2)	(51,3)	(55,6)	(4,6)	(82,1)	(17,84)	(28,5)	(26,15)	(0,11)	(11,3)	(-1,1)	(9,5)	
L1D -28>	(-4,26)	(238,32)	(1,29)	(-162,1)	(0,26)	(59,7)	(2,9)	(-74,38)	(8,13)	(34,82)	(-31,44)	(4,23)	(28,8)	(18,16)	(12,52)	(-56,63)	
L1D -27>	(-13,8)	(27,27)	(97,68)	(1,65)	(4,56)	(0,5)	(13,17)	(-256,11)	(-162,6)	(10,12)	(2,5)	(-25,3)	(59,5)	(12,7)	(40,14)	(5,95)	
L1D -26>	(-10,4)	(40,11)	(19,1)	(1,90)	(-192,34)	(-52,27)	(0,8)	(-96,33)	(33,11)	(-5,19)	(4,13)	(-1,11)	(-162,3)	(26,3)	(5,26)	(-2,3)	
L1D -25>	(59,45)	(13,22)	(24,12)	(-70,81)	(-163,29)	(30,10)	(0,12)	(22,58)	(41,11)	(1,70)	(31,51)	(-10,43)	(-24,1)	(6,16)	(25,14)	(-162,21)	
L1D -24>	(24,14)	(1,11)	(0,8)	(6,13)	(5,4)	(-23,8)	(12,52)	(-4,49)	(140,37)	(-11,6)	(9,12)	(3,105)	(13,44)	(4,8)	(-80,1)	(-258,32)	
L1D -23>	(11,4)	(1,66)	(-5,19)	(18,40)	(22,22)	(-39,9)	(-1,1)	(35,10)	(392,6)	(0,31)	(2,15)	(3,8)	(390,11)	(-52,14)	(25,53)	(23,17)	
L1D -22>	(-70,11)	(5,99)	(40,23)	(1,50)	(-9,97)	(38,42)	(-37,12)	(2,4)	(0,4)	(254,43)	(59,5)	(22,6)	(326,34)	(4,49)	(-6,1)	(-239,11)	
L1D -21>	(5,118)	(21,45)	(22,14)	(-1,83)	(13,83)	(8,67)	(4,19)	(1,45)	(-10,42)	(7,1)	(18,20)	(0,6)	(6,12)	(-78,10)	(-4,11)	(2,16)	
L1D -20>	(0,27)	(20,27)	(17,62)	(18,71)	(229,46)	(22,74)	(1,30)	(-1,36)	(162,1)	(59,4)	(5,14)	(13,15)	(16,43)	(289,21)	(19,7)	(15,67)	
L1D -19>	(18,13)	(-4,36)	(9,16)	(13,1)	(10,15)	(154,4)	(6,68)	(-9,122)	(152,26)	(-7,18)	(19,9)	(1,75)	(4,34)	(2,31)	(8,25)	(-2,54)	
L1D -18>	(6,46)	(-308,64)	(-90,64)	(5,24)	(2,8)	(-63,64)	(4,21)	(-20,1)	(15,61)	(1,65)	(9,23)	(18,28)	(54,58)	(-3,27)	(17,55)	(-252,64)	
L1D -17>	(202,6)	(16,7)	(9,4)	(1,116)	(6,1)	(0,2)	(7,10)	(40,15)	(4,27)	(-77,19)	(17,4)	(-2,3)	(-5,121)	(-6,4)	(-199,6)	(-1,8)	
L1D -16>	(0,1)	(-5,75)	(64,13)	(16,30)	(1,12)	(36,14)	(8,14)	(3,9)	(-2,9)	(-6,45)	(-1,18)	(30,13)	(276,10)	(59,2)	(7,7)	(63,9)	
L1D -15>	(93,10)	(1,44)	(17,46)	(2,17)	(0,120)	(9,20)	(3,7)	(13,7)	(6,36)	(15,15)	(-1,9)	(-4,21)	(-33,1)	(-18,5)	(18,21)	(8,10)	
L1D -14>	(23,19)	(15,13)	(-14,1)	(0,62)	(218,82)	(14,34)	(6,55)	(-1,6)	(56,111)	(-5,86)	(-139,8)	(66,12)	(-96,97)	(1,80)	(9,13)	(10,25)	
L1D -13>	(1,22)	(-9,113)	(13,31)	(24,1)	(-8,62)	(-12,25)	(10,4)	(18,3)	(4,14)	(0,13)	(-10,4)	(6,7)	(5,23)	(12,13)	(-5,43)	(-80,3)	
L1D -12>	(-234,30)	(12,22)	(-5,70)	(6,19)	(4,29)	(-10,45)	(-130,33)	(-46,30)	(1,91)	(2,16)	(-7,77)	(-32,1)	(-82,31)	(-8,53)	(0,47)	(18,17)	
L1D -11>	(-7,105)	(5,76)	(9,9)	(-4,1)	(-8,40)	(0,34)	(1,51)	(-1,21)	(2,68)	(26,99)	(3,22)	(-9,13)	(11,36)	(-5,49)	(47,79)	(4,54)	
L1D -10>	(25,10)	(8,20)	(-5,38)	(1,20)	(-70,11)	(23,7)	(41,13)	(4,66)	(106,12)	(7,15)	(57,12)	(0,19)	(2,36)	(117,1)	(9,27)	(-156,12)	
L1D -9>	(18,37)	(61,19)	(13,17)	(6,16)	(-3,15)	(9,38)	(-7,17)	(12,37)	(8,10)	(17,11)	(-1,21)	(4,70)	(3,1)	(-72,6)	(10,13)	(1,20)	
L1D -8>	(9,86)	(-8,44)	(8,49)	(14,100)	(-32,37)	(-1,18)	(-20,34)	(-2,38)	(1,90)	(5,38)	(16,1)	(2,102)	(0,103)	(10,87)	(6,66)	(-4,49)	
L1D -7>	(30,51)	(0,45)	(22,28)	(1,52)	(-1,24)	(15,74)	(66,29)	(-4,19)	(10,11)	(7,75)	(3,9)	(-9,15)	(56,19)	(6,12)	(49,1)	(89,10)	
L1D -6>	(-5,1)	(2,32)	(5,90)	(9,81)	(-6,27)	(41,55)	(7,14)	(3,68)	(1,96)	(10,62)	(-7,10)	(-48,8)	(-2,72)	(4,19)	(-8,19)	(-1,24)	
L1D -5>	(-6,26)	(10,1)	(8,6)	(4,21)	(18,13)	(9,31)	(12,7)	(-1,32)	(1,23)	(14,8)	(5,68)	(17,18)	(-3,11)	(16,11)	(41,17)	(6,9)	
L1D -4>	(-64,16)	(3,24)	(15,39)	(-4,104)	(-5,79)	(1,105)	(0,72)	(4,77)	(-21,14)	(11,1)	(5,25)	(-1,14)	(26,20)	(6,41)	(2,77)	(9,17)	
L1D -3>	(6,27)	(0,119)	(2,64)	(-5,44)	(4,109)	(-7,37)	(14,22)	(346,12)	(3,54)	(-344,8)	(1,86)	(-1,75)	(20,28)	(-2,31)	(175,1)	(43,12)	
L1D -2>	(-10,17)	(0,72)	(2,65)	(-172,1)	(13,40)	(-18,15)	(3,56)	(-3,29)	(4,86)	(-6,30)	(-1,50)	(5,36)	(1,43)	(6,14)	(-171,38)	(106,13)	
L1D -1>	(4,61)	(346,6)	(171,9)	(3,19)	(-1,80)	(1,37)	(-2,18)	(5,27)	(-171,30)	(2,33)	(172,10)	(-13,1)	(-3,19)	(343,7)	(0,30)	(-7,7)	
L1D 0>	(0,107)	(306,1)	(7,4)	(3,4)	(17,3)	(9,4)	(-3,2)	(-1,2)	(-5,2)	(-50,1)	(-7,8)	(1,4)	(5,4)	(20,2)	(23,2)	(49,2)	
L1D 1>	(-5,4)	(1,98)	(8,2)	(10,1)	(-4,1)	(3,4)	(6,2)	(-171,1)	(-1,8)	(-6,6)	(0,1)	(-7,2)	(-11,1)	(-173,2)	(2,7)	(-2,3)	
L1D 2>	(-3,37)	(-8,20)	(-173,14)	(3,11)	(-1,27)	(1,80)	(0,22)	(-10,10)	(-4,11)	(-2,29)	(2,45)	(6,22)	(4,23)	(-75,1)	(-6,20)	(-172,25)	
L1D 3>	(171,11)	(1,86)	(2,32)	(-3,54)	(5,32)	(343,22)	(-11,31)	(-4,19)	(-1,53)	(-2,22)	(6,27)	(4,14)	(-173,37)	(-23,1)	(13,8)	(0,13)	
L1D 4>	(-46,53)	(5,91)	(4,9)	(-6,30)	(171,10)	(-1,52)	(36,12)	(-17,1)	(-8,39)	(9,127)	(-174,28)	(-35,22)	(6,14)	(-7,33)	(-4,48)	(1,19)	
L1D 5>	(4,75)	(-7,16)	(-5,19)	(-4,46)	(35,12)	(18,1)	(31,15)	(44,8)	(9,104)	(40,30)	(13,9)	(-37,15)	(-3,5)	(-248,8)	(2,10)	(1,31)	
L1D 6>	(-15,52)	(-10,27)	(-6,39)	(94,34)	(-16,1)	(-1,52)	(-4,14)	(1,60)	(-8,64)	(-128,36)	(-7,111)	(-3,43)	(-13,63)	(-2,16)	(18,53)	(-9,39)	
L1D 7>	(-7,57)	(-9,4)	(0,114)	(-1,22)	(-2,8)	(-6,8)	(1,36)	(-12,13)	(13,13)	(-27,1)	(-31,9)	(9,6)	(2,30)	(-10,11)	(-5,8)	(-11,6)	
L1D 8>	(1,102)	(4,1)	(9,78)	(-8,70)	(-27,70)	(-1,51)	(10,44)	(-12,35)	(-3,61)	(-19,126)	(-10,67)	(194,56)	(-5,16)	(-80,45)	(158,54)	(-23,17)	
L1D 9>	(-13,53)	(40,33)	(4,41)	(52,1)	(-18,6)	(5,43)	(9,99)	(-21,10)	(-22,31)	(-35,8)	(-31,14)	(-17,45)	(-26,7)	(-7,20)	(-12,56)	(12,4)	
L1D 10>	(-12,16)	(-11,1)	(0,79)	(-1,65)	(1,37)	(-19,82)	(-6,37)	(-10,25)	(-2,52)	(-4,82)	(8,28)	(-8,114)	(6,66)	(-24,56)	(-3,15)	(-9,25)	
L1D 11>	(-8,27)	(47,35)	(3,9)	(0,91)	(-4,1)	(1,35)	(-5,46)	(-2,28)	(-3,13)	(36,98)	(-7,34)	(-20,77)	(-9,38)	(-11,72)	(-10,69)	(-16,102)	
L1D 12>	(1,1)	(-6,11)	(-19,75)	(-14,11)	(-3,126)	(-7,65)	(0,26)	(-11,11)	(76,28)	(-24,30)	(-2,53)	(144,19)	(-21,10)	(-20,91)	(-12,18)	(-8,31)	
L1D 13>	(-15,8)	(-13,5)	(20,16)	(-8,14)	(-20,67)	(-5,16)	(7,10)	(-6,2)	(0,33)	(8,14)	(-2,18)	(40,13)	(-11,16)	(13,8)	(-18,11)	(-4,7)	
L1D 14>	(7,10)	(-14,15)	(-278,35)	(-1,12)	(-19,26)	(-13,49)	(-15,22)	(-7,36)	(-11,50)	(12,43)	(0,82)	(-156,30)	(78,42)	(-16,34)	(6,12)	(-30,1)	
L1D 15>	(-9,1)	(0,118)	(-10,29)	(-127,43)	(75,29)	(-3,55)	(-18,41)	(4,33)	(47,43)	(81,27)	(65,36)	(67,29)	(83,28)	(2,34)	(69,36)	(-16,32)	
L1D 16>	(-88,72)	(1,33)	(59,20)	(-7,71)	(-34,78)	(-96,73)	(-11,16)	(-4,81)	(23,52)	(-6,11)	(0,115)	(-2,49)	(47,103)	(-16,40)	(40,26)	(-15,1)	
L1D 17>	(1,21)	(-18,8)	(-15,15)	(78,7)	(-3,19)	(-19,15)	(-23,10)	(0,26)	(-16,61)	(4,12)	(2,14)	(10,1)	(-11,123)	(31,19)	(19,28)	(-17,7)	
L1D 18>	(-8,2)	(-88,16)	(72,24)	(-12,30)	(-11,17)	(70,14)	(1,30)	(-19,16)	(-22,1)	(-13,11)	(-9,66)	(8,8)	(-29,14)	(0,9)	(-7,7)	(202,16)	
L1D 19>	(-20,22)	(-4,82)	(1,42)	(-303,59)	(-49,36)	(-18,8)	(0,28)	(-19,37)	(-15,16)	(-1,6)	(8,8)	(220,1)	(-17,4)	(-30,7)	(-12,15)	(-25,20)	
L1D 20>	(-16,113)	(-20,35)	(-3,5)	(138,51)	(-22,98)	(-19,56)	(4,54)	(-2,13)	(-24,19)	(-10,2)	(5,56)	(-21,35)	(-15,37)	(-12,52)	(-26,24)	(-6,8)	
L1D 21>	(8,70)	(6,15)	(-31,26)	(7,6)	(-25,15)	(-21,18)	(1,22)	(-99,10)	(-22,1)	(-61,54)	(-23,6)	(-27,12)	(2,8)	(-18,10)	(-16,34)	(-15,63)	
L1D 22>	(-8,34)	(3,8)	(-28,46)	(1,3)	(-12,38)	(-1,12)	(242,54)	(-23,64)	(146,1)	(369,38)	(-16,14)	(-11,13)	(-290,17)	(-19,11)	(367,42)	(-24,89)	
L1D 23>	(-22,1)	(-18,1)	(3,14)	(-15,1)	(-24,1)	(-48,0)	(-28,1)	(-11,0)	(-20,1)	(1,7)	(-1,4)	(-13,2)	(-23,3)	(-16,5)	(-9,6)	(4,70)	
L1D 24>	(-26,13)	(-5,9)	(-8,20)	(0,49)	(1,34)	(-24,25)	(290,95)	(-11,30)	(-52,33)	(28,30)	(-7,1)	(158,92)	(70,11)	(72,56)	(-15,46)	(98,65)	
L1D 25>	(-3,8)	(-27,52)	(-133,22)	(-12,86)	(-77,75)	(-19,70)	(-6,66)	(-52,1)	(-1,7)	(-28,2)	(-26,17)	(56,36)	(1,14)	(-15,52)	(-25,39)	(2,7)	
L1D 26>	(42,1)	(1,30)	(-228,29)	(-154,35)	(-7,4)	(0,2)	(54,12)	(26,2)	(-25,7)	(2,22)	(-15,72)	(-12,2)	(-26,12)	(-44,3)	(192,6)	(-1,36)	
L1D 27>	(-133,11)	(-15,81)	(-23,23)	(-5,3)	(53,8)	(-28,11)	(-10,7)	(173,4)	(-13,4)	(-17,26)	(8,18)	(-20,1)	(-16,44)	(-27,23)	(-9,27)	(2,5)	
L1D 28>	(-28,17)	(-14,11)	(184,49)	(1,3)	(182,8)	(-80,8)	(-2,53)	(-18,66)	(58,63)	(-44,7)	(-12,1)	(66,61)	(2,37)	(-27,9)	(-24,65)	(236,65)	
L1D 29>	(-25,48)	(-1,5)	(-12,5)	(69,1)	(6,71)	(-11,20)	(-2,7)	(8,4)	(0,19)	(-29,13)	(-28,34)	(-30,6)	(1,13)	(-31,33)	(10,4)	(5,8)	
L1D 30>	(41,8)	(66,28)	(-2,13)	(-33,124)	(-34,23)	(-21,1)	(-32,12)	(4,36)	(-9,22)	(-297,4)	(-19,1)	(-60,17)	(232,1)	(-66,1)	(-40,2)	(-28,3)	
L1D 31>	(-15,2)	(-242,28)	(-1,23)	(0,1)	(-19,11)	(-324,5)	(41,12)	(4,11)	(-28,2)	(-8,4)	(-185,32)	(-243,3)	(-43,4)	(40,114)	(-31,4)	(8,11)	
L1D 32>	(-154,41)	(-31,106)	(8,16)	(-25,6)	(-228,1)	(55,1)	(40,8)	(4,1)	(18,42)	(1,11)	(70,3)	(-16,4)	(76,1)	(-11,3)	(-272,1)	(-24,1)	
L1D 33>	(0,66)	(23,1)	(-25,23)	(9,97)	(-1,25)	(-7,100)	(10,6)	(-6,14)	(-33,83)	(-236,8)	(-31,24)	(-427,10)	(-24,5)	(-3,91)	(-8,8)	(2,16)	
L1D 34>	(-14,1)	(10,80)	(-32,19)	(-9,4)	(238,93)	(-1,5)	(41,82)	(42,4)	(1,21)	(-25,24)	(-34,6)	(-312,9)	(-8,5)	(-350,14)	(-12,89)	(-20,5)	
L1D 35>	(41,65)	(7,2)	(40,15)	(5,30)	(-171,24)	(3,1)	(4,5)	(-117,2)	(-202,1)	(-243,6)	(1,1)	(-8,1)	(-2,3)	(-24,5)	(-162,2)	(-121,1)	
L1D 36>	(-43,3)	(-38,31)	(-60,31)	(128,2)	(4,98)	(-88,38)	(2,3)	(-37,4)	(-64,1)	(-35,15)	(228,16)	(-30,10)	(-62,27)	(-32,9)	(40,106)	(8,3)	
L1D 37>	(-1,0)	(79,1)	(-24,0)	(4,1)	(11,0)	(-35,104)	(-34,0)	(-20,0)	(0,1)	(-23,0)	(-37,1)	(-6,0)	(-12,1)	(-38,4)	(159,0)	(1,1)	
L1D 38>	(6,2)	(76,1)	(-322,65)	(136,75)	(-50,73)	(-2,13)	(16,71)	(48,68)	(1,12)	(0,25)	(-102,7)	(-104,18)	(40,4)	(-8,2)	(-24,20)	(-28,9)	
L1D 39>	(-39,7)	(-8,17)	(40,104)	(4,16)	(11,93)	(-4,17)	(41,51)	(-30,13)	(-166,1)	(-9,16)	(-21,35)	(-10,14)	(-99,35)	(-14,5)	(-1,24)	(-2,3)	
L1D 40>	(-278,1)	(41,112)	(142,1)	(-283,3)	(-162,2)	(-228,1)	(0,3)	(9,5)	(5,21)	(-3,2)	(-84,1)	(-40,3)	(-242,2)	(40,6)	(-4,1)	(-202,1)	
L1D 41>	(40,71)	(4,14)	(-261,1)	(-42,1)	(-220,0)	(-122,1)	(-40,0)	(-364,0)	(-162,0)	(-243,0)	(251,0)	(-346,0)	(-45,0)	(-43,2)	(-324,2)	(-81,0)	
L1D 42>	(4,37)	(-16,14)	(108,1)	(8,9)	(-45,9)	(-12,69)	(-7,13)	(-24,6)	(-38,11)	(-96,17)	(58,16)	(-42,11)	(-14,11)	(-46,2)	(40,59)	(106,102)	
L1D 43>	(-42,106)	(-3,1)	(-4,1)	(5,4)	(-129,0)	(-55,1)	(2,0)	(-43,10)	(-9,0)	(-7,1)	(11,1)	(-1,9)	(12,0)	(-15,1)	(-10,1)	(1,2)	
L1D 44>	(-1,1)	(1,16)	(5,10)	(-122,42)	(-39,33)	(-5,2)	(-14,5)	(204,62)	(-62,15)	(40,105)	(-9,1)	(0,1)	(128,56)	(41,45)	(-6,3)	(2,3)	
L1D 45>	(-3,2)	(27,1)	(-5,7)	(5,6)	(-12,1)	(-1,6)	(40,26)	(-64,1)	(-15,2)	(4,120)	(-9,16)	(11,5)	(-31,6)	(-27,1)	(-46,2)	(1,9)	
L1D 46>	(-280,41)	(-12,1)	(-6,2)	(63,0)	(1,4)	(-32,0)	(98,9)	(-64,0)	(81,68)	(-45,4)	(7,0)	(-172,5)	(-46,1)	(4,3)	(6,2)	(-24,1)	
L1D 47>	(4,49)	(-36,11)	(-4,17)	(-49,45)	(-46,117)	(-34,10)	(-1,23)	(-43,16)	(-47,71)	(-24,33)	(-7,25)	(-30,45)	(2,58)	(-13,2)	(6,5)	(-37,21)	
L1D 48>	(194,93)	(-5,16)	(-58,27)	(190,7)	(-30,97)	(28,7)	(0,1)	(-118,71)	(-66,81)	(-242,13)	(88,15)	(48,100)	(-168,100)	(232,8)	(-298,44)	(-50,2)	
L1D 49>	(-46,18)	(4,67)	(-50,25)	(-48,18)	(-43,20)	(-45,14)	(9,2)	(100,0)	(-49,2)	(5,2)	(-42,18)	(-41,31)	(-57,5)	(-24,3)	(-8,2)	(-137,3)	
L1D 50>	(1,2)	(-36,16)	(-174,62)	(0,2)	(-10,88)	(21,11)	(-12,1)	(9,9)	(-2,4)	(26,3)	(-15,5)	(-188,1)	(-8,12)	(2,1)	(120,11)	(-110,2)	
L1D 51>	(-12,5)	(-52,16)	(-1,10)	(-8,27)	(-16,5)	(-34,1)	(93,27)	(0,9)	(-5,13)	(-51,13)	(-32,9)	(-35,105)	(-19,6)	(-53,14)	(-24,19)	(-4,11)	
L1D 52>	(-345,4)	(-6,18)	(-24,12)	(0,6)	(-12,91)	(-44,21)	(2,7)	(226,4)	(-36,2)	(-7,2)	(24,12)	(-62,1)	(-52,35)	(-1,2)	(-8,16)	(-51,2)	
L1D 53>	(-8,13)	(-24,2)	(-53,77)	(-99,1)	(6,15)	(60,1)	(-129,2)	(-5,14)	(170,6)	(-54,6)	(-103,2)	(4,12)	(108,10)	(0,26)	(5,17)	(1,3)	
L1D 54>	(-133,2)	(107,10)	(-54,25)	(1,17)	(-6,13)	(-2,2)	(10,11)	(-4,15)	(-53,7)	(108,33)	(0,6)	(4,6)	(-14,2)	(-158,120)	(152,4)	(-8,22)	
L1D 55>	(-46,3)	(121,1)	(-39,2)	(4,4)	(13,4)	(-43,2)	(-1,9)	(1,3)	(-34,1)	(-40,1)	(0,92)	(-55,82)	(62,3)	(-24,15)	(-54,3)	(-8,11)	
L1D 56>	(-54,1)	(-48,88)	(-186,25)	(20,1)	(-76,1)	(-1,1)	(-55,22)	(57,5)	(4,2)	(61,7)	(-23,0)	(-40,20)	(-8,2)	(-11,2)	(-56,13)	(-24,6)	
[...]
L1D 484>	(-192,2)	(1,0)	(1,0)	(1,0)	(1,0)	(1,0)	(1,0)	(1,0)	(1,0)	(1,0)	(1,0)	(1,0)	(1,0)	(1,0)	(1,0)	(1,0)	
L1D 485>	(11,2)	(-218,1)	(-192,33)	(4,5)	(-92,1)	(1,0)	(1,0)	(1,0)	(1,0)	(1,0)	(1,0)	(1,0)	(1,0)	(1,0)	(1,0)	(1,0)	
L1D 486>	(-128,1)	(4,2)	(-141,1)	(-95,1)	(-160,1)	(-218,2)	(1,1)	(1,0)	(1,0)	(1,0)	(1,0)	(1,0)	(1,0)	(1,0)	(1,0)	(1,0)	
L1D 487>	(-192,1)	(-486,2)	(1,0)	(1,0)	(1,0)	(1,0)	(1,0)	(1,0)	(1,0)	(1,0)	(1,0)	(1,0)	(1,0)	(1,0)	(1,0)	(1,0)	
L1D 488>	(-16,1)	(-128,1)	(-40,1)	(-32,1)	(1,0)	(1,0)	(1,0)	(1,0)	(1,0)	(1,0)	(1,0)	(1,0)	(1,0)	(1,0)	(1,0)	(1,0)	
L1D 489>	(4,1)	(0,1)	(1,0)	(1,0)	(1,0)	(1,0)	(1,0)	(1,0)	(1,0)	(1,0)	(1,0)	(1,0)	(1,0)	(1,0)	(1,0)	(1,0)	
L1D 490>	(-491,1)	(-88,1)	(1,2)	(-204,1)	(0,1)	(-401,2)	(1,0)	(1,0)	(1,0)	(1,0)	(1,0)	(1,0)	(1,0)	(1,0)	(1,0)	(1,0)	
L1D 491>	(-491,1)	(1,1)	(1,0)	(1,0)	(1,0)	(1,0)	(1,0)	(1,0)	(1,0)	(1,0)	(1,0)	(1,0)	(1,0)	(1,0)	(1,0)	(1,0)	
L1D 492>	(1,1)	(-10,1)	(2,1)	(0,1)	(-48,1)	(-201,1)	(-492,1)	(1,0)	(1,0)	(1,0)	(1,0)	(1,0)	(1,0)	(1,0)	(1,0)	(1,0)	
L1D 493>	(11,1)	(4,1)	(1,0)	(1,0)	(1,0)	(1,0)	(1,0)	(1,0)	(1,0)	(1,0)	(1,0)	(1,0)	(1,0)	(1,0)	(1,0)	(1,0)	
L1D 494>	(1,2)	(-218,1)	(-10,1)	(-192,2)	(1,0)	(1,0)	(1,0)	(1,0)	(1,0)	(1,0)	(1,0)	(1,0)	(1,0)	(1,0)	(1,0)	(1,0)	
L1D 495>	(4,1)	(1,0)	(1,0)	(1,0)	(1,0)	(1,0)	(1,0)	(1,0)	(1,0)	(1,0)	(1,0)	(1,0)	(1,0)	(1,0)	(1,0)	(1,0)	
L1D 496>	(-148,1)	(1,0)	(1,0)	(1,0)	(1,0)	(1,0)	(1,0)	(1,0)	(1,0)	(1,0)	(1,0)	(1,0)	(1,0)	(1,0)	(1,0)	(1,0)	
L1D 497>	(0,1)	(1,0)	(1,0)	(1,0)	(1,0)	(1,0)	(1,0)	(1,0)	(1,0)	(1,0)	(1,0)	(1,0)	(1,0)	(1,0)	(1,0)	(1,0)	
L1D 498>	(-182,1)	(4,1)	(1,0)	(1,0)	(1,0)	(1,0)	(1,0)	(1,0)	(1,0)	(1,0)	(1,0)	(1,0)	(1,0)	(1,0)	(1,0)	(1,0)	
L1D 499>	(-405,4)	(11,1)	(-150,1)	(-214,1)	(-499,1)	(1,0)	(1,0)	(1,0)	(1,0)	(1,0)	(1,0)	(1,0)	(1,0)	(1,0)	(1,0)	(1,0)	
L1D 500>	(-488,1)	(1,0)	(1,0)	(1,0)	(1,0)	(1,0)	(1,0)	(1,0)	(1,0)	(1,0)	(1,0)	(1,0)	(1,0)	(1,0)	(1,0)	(1,0)	
L1D 501>	(4,1)	(1,0)	(1,0)	(1,0)	(1,0)	(1,0)	(1,0)	(1,0)	(1,0)	(1,0)	(1,0)	(1,0)	(1,0)	(1,0)	(1,0)	(1,0)	
L1D 502>	(1,1)	(1,0)	(1,0)	(1,0)	(1,0)	(1,0)	(1,0)	(1,0)	(1,0)	(1,0)	(1,0)	(1,0)	(1,0)	(1,0)	(1,0)	(1,0)	
L1D 503>	(4,1)	(1,0)	(1,0)	(1,0)	(1,0)	(1,0)	(1,0)	(1,0)	(1,0)	(1,0)	(1,0)	(1,0)	(1,0)	(1,0)	(1,0)	(1,0)	
L1D 504>	(-375,7)	(-479,1)	(1,0)	(1,0)	(1,0)	(1,0)	(1,0)	(1,0)	(1,0)	(1,0)	(1,0)	(1,0)	(1,0)	(1,0)	(1,0)	(1,0)	
L1D 505>	(1,0)	(1,0)	(1,0)	(1,0)	(1,0)	(1,0)	(1,0)	(1,0)	(1,0)	(1,0)	(1,0)	(1,0)	(1,0)	(1,0)	(1,0)	(1,0)	
L1D 506>	(0,1)	(1,0)	(1,0)	(1,0)	(1,0)	(1,0)	(1,0)	(1,0)	(1,0)	(1,0)	(1,0)	(1,0)	(1,0)	(1,0)	(1,0)	(1,0)	
L1D 507>	(1,0)	(1,0)	(1,0)	(1,0)	(1,0)	(1,0)	(1,0)	(1,0)	(1,0)	(1,0)	(1,0)	(1,0)	(1,0)	(1,0)	(1,0)	(1,0)	
L1D 508>	(1,0)	(1,0)	(1,0)	(1,0)	(1,0)	(1,0)	(1,0)	(1,0)	(1,0)	(1,0)	(1,0)	(1,0)	(1,0)	(1,0)	(1,0)	(1,0)	
L1D 509>	(1,0)	(1,0)	(1,0)	(1,0)	(1,0)	(1,0)	(1,0)	(1,0)	(1,0)	(1,0)	(1,0)	(1,0)	(1,0)	(1,0)	(1,0)	(1,0)	
L1D 510>	(1,0)	(1,0)	(1,0)	(1,0)	(1,0)	(1,0)	(1,0)	(1,0)	(1,0)	(1,0)	(1,0)	(1,0)	(1,0)	(1,0)	(1,0)	(1,0)	
L1D 511>	(1,0)	(1,0)	(1,0)	(1,0)	(1,0)	(1,0)	(1,0)	(1,0)	(1,0)	(1,0)	(1,0)	(1,0)	(1,0)	(1,0)	(1,0)	(1,0)	

L2C -64>	(1,248)	(-6,6)	(-1,67)	(2,33)	(3,12)	(-44,24)	(-2,156)	(-14,2)	(-23,8)	(-3,70)	(-15,3)	(-22,7)	(20,4)	(0,38)	(5,19)	(-21,13)	
L2C -63>	(0,1)	(41,12)	(42,16)	(19,3)	(29,1)	(18,1)	(22,3)	(1,1)	(15,1)	(1,0)	(1,0)	(1,0)	(1,0)	(1,0)	(1,0)	(1,0)	
L2C -62>	(58,1)	(1,5)	(-1,2)	(19,4)	(2,6)	(42,1)	(18,3)	(27,1)	(30,1)	(4,1)	(20,1)	(1,0)	(1,0)	(1,0)	(1,0)	(1,0)	
L2C -61>	(5,2)	(55,1)	(49,1)	(1,6)	(2,2)	(42,1)	(37,1)	(60,1)	(11,1)	(13,1)	(45,1)	(40,1)	(43,1)	(56,1)	(9,2)	(4,1)	
L2C -60>	(2,2)	(1,11)	(-2,1)	(43,2)	(44,2)	(18,1)	(54,1)	(52,1)	(-1,1)	(3,1)	(1,0)	(1,0)	(1,0)	(1,0)	(1,0)	(1,0)	
L2C -59>	(1,12)	(24,1)	(2,4)	(14,1)	(18,3)	(37,1)	(9,1)	(11,2)	(3,2)	(29,1)	(39,3)	(17,1)	(36,2)	(12,1)	(6,1)	(38,1)	
L2C -58>	(1,31)	(14,1)	(57,2)	(2,2)	(50,1)	(3,4)	(53,1)	(5,3)	(9,2)	(48,1)	(33,1)	(34,1)	(-5,1)	(29,1)	(58,1)	(28,1)	
L2C -57>	(38,0)	(1,162)	(0,0)	(-1,0)	(1,0)	(1,0)	(1,0)	(1,0)	(1,0)	(1,0)	(1,0)	(1,0)	(1,0)	(1,0)	(1,0)	(1,0)	
L2C -56>	(1,20)	(48,3)	(40,2)	(9,2)	(14,5)	(7,4)	(44,2)	(13,2)	(21,1)	(-1,9)	(51,2)	(20,1)	(-2,1)	(50,3)	(4,9)	(23,1)	
L2C -55>	(4,2)	(2,4)	(5,5)	(34,1)	(1,15)	(-1,3)	(45,2)	(49,4)	(62,1)	(23,1)	(3,2)	(20,13)	(33,2)	(-2,5)	(53,2)	(46,2)	
L2C -54>	(1,43)	(41,9)	(46,2)	(6,10)	(26,9)	(31,4)	(4,5)	(-2,3)	(5,5)	(36,2)	(22,2)	(51,3)	(25,1)	(3,6)	(20,3)	(50,1)	
L2C -53>	(1,49)	(55,2)	(15,2)	(21,16)	(0,48)	(20,1)	(3,4)	(18,2)	(53,7)	(51,3)	(26,9)	(54,6)	(27,1)	(37,2)	(47,1)	(12,1)	
L2C -52>	(1,210)	(-4,7)	(8,1)	(15,2)	(26,10)	(11,4)	(-1,5)	(0,2)	(53,3)	(44,2)	(27,2)	(7,5)	(2,9)	(59,1)	(23,3)	(21,3)	
L2C -51>	(1,112)	(45,12)	(52,7)	(15,175)	(53,1)	(16,49)	(-7,3)	(29,50)	(0,45)	(7,48)	(-3,3)	(14,53)	(5,4)	(6,54)	(-6,4)	(8,14)	
L2C -50>	(44,35)	(21,61)	(4,1)	(18,5)	(14,14)	(29,29)	(1,84)	(-1,29)	(15,57)	(24,47)	(20,42)	(33,3)	(-3,3)	(3,8)	(9,13)	(22,19)	
L2C -49>	(27,1)	(0,4)	(44,6)	(6,61)	(43,36)	(-1,14)	(1,44)	(14,37)	(2,14)	(8,8)	(-2,13)	(3,4)	(51,4)	(15,31)	(16,6)	(35,6)	
L2C -48>	(43,20)	(-1,14)	(1,47)	(42,10)	(15,1)	(22,17)	(6,9)	(2,13)	(3,6)	(14,9)	(27,11)	(-2,3)	(18,4)	(44,3)	(36,3)	(26,3)	
L2C -47>	(1,41)	(43,28)	(-1,16)	(9,6)	(21,6)	(22,6)	(13,7)	(27,1)	(2,10)	(14,6)	(48,4)	(37,2)	(3,5)	(-3,5)	(34,3)	(8,8)	
L2C -46>	(44,250)	(23,13)	(43,41)	(32,2)	(1,38)	(22,20)	(0,5)	(-1,4)	(16,3)	(12,8)	(46,1)	(38,5)	(19,2)	(21,1)	(25,1)	(20,1)	
L2C -45>	(1,188)	(44,56)	(43,251)	(22,199)	(8,3)	(0,9)	(21,29)	(-5,2)	(-1,14)	(46,8)	(42,1)	(7,2)	(2,3)	(37,2)	(-2,1)	(24,1)	
L2C -44>	(22,91)	(1,104)	(-1,10)	(23,11)	(5,1)	(43,152)	(45,22)	(44,14)	(28,0)	(42,6)	(21,20)	(-11,0)	(9,0)	(2,0)	(0,3)	(-7,0)	
L2C -43>	(1,66)	(42,17)	(21,116)	(16,0)	(38,0)	(44,24)	(23,11)	(43,48)	(22,185)	(20,1)	(45,0)	(-1,52)	(-7,0)	(0,1)	(2,1)	(29,0)	
L2C -42>	(63,2)	(-2,2)	(44,16)	(1,44)	(-1,126)	(20,26)	(21,217)	(43,125)	(22,116)	(42,4)	(33,1)	(19,4)	(45,1)	(41,1)	(0,7)	(-21,5)	
L2C -41>	(1,143)	(43,5)	(-7,1)	(-2,161)	(22,1)	(20,89)	(21,22)	(-1,16)	(5,8)	(55,1)	(40,4)	(2,5)	(42,58)	(0,10)	(-3,4)	(19,45)	
L2C -40>	(1,59)	(18,10)	(41,53)	(-2,40)	(-1,23)	(-3,76)	(5,49)	(3,14)	(19,61)	(-5,9)	(35,7)	(-10,9)	(2,18)	(17,3)	(28,1)	(-4,2)	
L2C -39>	(53,0)	(41,0)	(1,134)	(-7,1)	(-2,0)	(-14,0)	(2,1)	(-1,0)	(34,0)	(11,0)	(-3,0)	(10,0)	(30,0)	(3,0)	(43,0)	(42,0)	
L2C -38>	(2,12)	(1,121)	(15,15)	(5,16)	(38,29)	(-1,18)	(-7,9)	(33,6)	(-12,1)	(37,3)	(9,9)	(-5,5)	(40,8)	(3,11)	(39,32)	(-2,6)	
L2C -37>	(-8,6)	(14,11)	(-1,61)	(2,34)	(37,27)	(1,110)	(38,6)	(3,9)	(40,16)	(-7,1)	(18,16)	(8,5)	(44,14)	(13,6)	(-21,3)	(16,6)	
L2C -36>	(1,214)	(-1,41)	(-21,39)	(15,9)	(2,72)	(14,22)	(31,1)	(7,37)	(41,5)	(-19,26)	(33,3)	(3,12)	(-7,15)	(9,6)	(6,8)	(-5,2)	
L2C -35>	(1,154)	(8,109)	(29,25)	(33,27)	(10,39)	(2,32)	(36,12)	(-2,17)	(24,6)	(-1,176)	(6,1)	(-20,15)	(-22,39)	(39,11)	(28,88)	(21,11)	
L2C -34>	(1,186)	(3,24)	(18,15)	(-2,35)	(-21,19)	(2,67)	(32,1)	(14,10)	(8,60)	(39,10)	(-1,157)	(-10,5)	(33,29)	(-13,9)	(9,7)	(10,9)	
L2C -33>	(1,99)	(31,7)	(5,21)	(11,10)	(18,8)	(19,14)	(3,27)	(35,6)	(28,6)	(-1,24)	(14,11)	(2,71)	(23,11)	(-3,12)	(-2,5)	(34,1)	
L2C -32>	(1,108)	(2,76)	(3,35)	(-1,27)	(18,14)	(-2,10)	(32,1)	(-19,5)	(30,10)	(33,13)	(-21,33)	(9,8)	(14,13)	(24,7)	(6,11)	(5,19)	
L2C -31>	(1,98)	(8,8)	(5,51)	(2,73)	(22,6)	(13,5)	(-1,44)	(29,12)	(-5,1)	(3,30)	(24,6)	(-3,6)	(-15,4)	(-10,5)	(43,6)	(15,7)	
L2C -30>	(8,43)	(-2,18)	(1,165)	(2,70)	(44,44)	(-20,37)	(3,23)	(16,30)	(-1,41)	(13,10)	(14,46)	(-7,10)	(31,1)	(-12,10)	(5,28)	(30,8)	
L2C -29>	(1,130)	(-1,199)	(5,1)	(6,7)	(30,7)	(-6,10)	(8,54)	(44,81)	(7,46)	(20,7)	(-21,162)	(2,43)	(-7,48)	(43,20)	(15,36)	(0,19)	
L2C -28>	(20,14)	(1,47)	(22,7)	(14,58)	(29,6)	(-22,35)	(4,9)	(-1,83)	(7,19)	(44,1)	(42,14)	(21,221)	(-9,3)	(3,3)	(15,37)	(-7,17)	
L2C -27>	(-21,10)	(22,43)	(1,92)	(21,21)	(27,37)	(6,42)	(28,22)	(0,33)	(8,15)	(-17,9)	(-8,14)	(-1,85)	(41,27)	(24,1)	(7,21)	(-22,6)	
L2C -26>	(2,71)	(-21,9)	(21,37)	(-1,57)	(22,31)	(-22,8)	(27,28)	(33,38)	(42,7)	(0,86)	(1,100)	(3,16)	(20,72)	(4,15)	(25,10)	(10,1)	
L2C -25>	(-21,10)	(-22,4)	(22,24)	(21,35)	(1,123)	(10,33)	(2,32)	(-1,49)	(44,7)	(-12,16)	(20,18)	(0,43)	(4,13)	(7,1)	(-20,6)	(5,33)	
L2C -24>	(-21,175)	(22,138)	(43,139)	(-22,113)	(1,156)	(2,9)	(21,37)	(5,5)	(44,7)	(11,3)	(0,24)	(16,1)	(8,6)	(9,2)	(-1,4)	(17,2)	
L2C -23>	(7,0)	(1,152)	(-21,106)	(22,93)	(42,9)	(43,134)	(21,84)	(24,17)	(0,25)	(-22,165)	(-1,17)	(45,2)	(29,1)	(2,8)	(44,27)	(20,4)	
L2C -22>	(1,195)	(-21,92)	(21,46)	(22,90)	(45,3)	(43,94)	(0,6)	(46,1)	(23,22)	(-22,14)	(-1,7)	(2,3)	(-20,3)	(44,23)	(3,1)	(42,6)	
L2C -21>	(43,43)	(22,133)	(-21,18)	(-19,0)	(42,22)	(-1,35)	(23,2)	(1,18)	(-22,34)	(0,15)	(21,64)	(44,1)	(-23,11)	(20,14)	(-2,0)	(-20,0)	
L2C -20>	(-1,32)	(1,134)	(21,60)	(-23,20)	(42,29)	(-22,17)	(-2,23)	(22,17)	(-9,1)	(0,2)	(43,10)	(20,9)	(41,5)	(-8,0)	(-21,12)	(19,2)	
L2C -19>	(1,13)	(0,43)	(-2,134)	(-24,13)	(20,34)	(3,19)	(2,27)	(40,4)	(-3,15)	(41,16)	(-8,5)	(5,1)	(11,2)	(19,32)	(-1,16)	(-23,11)	
L2C -18>	(1,223)	(33,1)	(40,1)	(17,2)	(18,1)	(-6,1)	(9,1)	(5,1)	(19,10)	(4,3)	(-7,1)	(22,1)	(6,1)	(-5,1)	(-3,1)	(21,1)	
L2C -17>	(1,208)	(19,25)	(5,8)	(-6,1)	(18,71)	(-1,6)	(-5,6)	(10,3)	(-2,76)	(13,3)	(-7,3)	(2,18)	(3,13)	(28,3)	(26,7)	(15,3)	
L2C -16>	(1,118)	(-5,9)	(-38,1)	(17,30)	(11,10)	(0,96)	(13,7)	(23,5)	(-6,6)	(15,25)	(14,34)	(9,12)	(16,170)	(3,74)	(-8,8)	(2,100)	
L2C -15>	(1,171)	(23,3)	(9,15)	(2,92)	(30,5)	(16,10)	(-7,11)	(8,9)	(40,1)	(10,9)	(-6,4)	(36,4)	(3,17)	(-1,91)	(31,3)	(7,16)	
L2C -14>	(1,86)	(8,30)	(13,12)	(7,33)	(15,23)	(-12,36)	(-13,73)	(28,45)	(-7,24)	(22,30)	(-1,63)	(-6,35)	(42,1)	(6,27)	(-15,245)	(35,21)	
L2C -13>	(1,114)	(-1,235)	(2,36)	(59,1)	(-8,10)	(27,11)	(6,25)	(14,23)	(15,59)	(13,43)	(0,41)	(9,22)	(21,16)	(28,20)	(7,24)	(12,25)	
L2C -12>	(1,205)	(21,35)	(-9,49)	(7,18)	(13,41)	(-3,15)	(-10,76)	(9,32)	(15,1)	(28,58)	(11,45)	(-2,42)	(20,37)	(10,37)	(-1,235)	(5,61)	
L2C -11>	(6,47)	(10,67)	(1,241)	(3,48)	(-11,19)	(-10,22)	(5,73)	(-1,67)	(17,34)	(-16,12)	(14,20)	(-8,21)	(0,1)	(2,61)	(-14,10)	(8,28)	
L2C -10>	(1,239)	(2,79)	(18,21)	(6,14)	(14,1)	(9,85)	(16,29)	(11,66)	(-14,10)	(43,7)	(8,97)	(-1,64)	(0,59)	(-12,18)	(5,48)	(31,24)	
L2C -9>	(10,45)	(1,162)	(15,39)	(16,26)	(21,1)	(8,236)	(11,18)	(-6,7)	(4,12)	(7,98)	(6,18)	(-7,9)	(-1,51)	(0,12)	(23,14)	(9,71)	
L2C -8>	(1,38)	(7,45)	(-1,30)	(-14,11)	(43,1)	(15,15)	(14,5)	(-22,10)	(-13,4)	(2,10)	(-12,7)	(10,10)	(-21,4)	(8,199)	(9,6)	(0,24)	
L2C -7>	(-7,39)	(1,85)	(6,57)	(-6,15)	(49,1)	(-1,184)	(15,28)	(-8,47)	(21,26)	(10,17)	(5,19)	(7,93)	(8,82)	(0,25)	(14,68)	(22,8)	
L2C -6>	(-7,14)	(1,174)	(8,6)	(-2,3)	(7,18)	(5,4)	(-1,10)	(-6,1)	(-9,5)	(6,30)	(4,1)	(19,2)	(21,11)	(-3,1)	(-8,4)	(0,6)	
L2C -5>	(-22,34)	(21,22)	(1,188)	(-43,5)	(22,19)	(-1,99)	(5,68)	(-21,21)	(10,1)	(6,185)	(3,39)	(-9,14)	(2,129)	(-15,12)	(0,140)	(-18,10)	
L2C -4>	(1,204)	(2,105)	(5,108)	(3,58)	(7,22)	(21,10)	(-22,38)	(9,1)	(-8,45)	(4,40)	(10,17)	(14,18)	(-1,64)	(22,9)	(0,43)	(13,5)	
L2C -3>	(1,131)	(-42,5)	(2,16)	(3,16)	(-2,2)	(0,11)	(-21,43)	(22,37)	(-1,9)	(44,9)	(-43,7)	(5,8)	(6,2)	(4,27)	(43,7)	(45,0)	
L2C -2>	(0,146)	(21,16)	(-13,1)	(1,126)	(-23,1)	(-21,21)	(22,15)	(4,1)	(-1,13)	(-22,11)	(43,1)	(-25,1)	(-20,1)	(3,4)	(-43,4)	(2,6)	
L2C -1>	(0,109)	(-7,4)	(-1,17)	(44,53)	(-8,1)	(2,23)	(-42,2)	(22,78)	(-22,107)	(-21,243)	(-20,9)	(1,244)	(23,1)	(8,6)	(21,20)	(-43,9)	
L2C 0>	(-22,5)	(-1,9)	(19,1)	(1,70)	(6,0)	(-43,1)	(0,146)	(-21,7)	(21,4)	(22,1)	(30,0)	(2,9)	(-8,5)	(16,0)	(51,0)	(35,0)	
L2C 1>	(-22,19)	(1,154)	(-44,4)	(22,19)	(5,17)	(21,11)	(-23,8)	(-9,1)	(0,15)	(-1,22)	(42,14)	(11,19)	(-21,6)	(-2,13)	(-57,14)	(12,16)	
L2C 2>	(1,242)	(-2,67)	(18,3)	(-1,21)	(0,1)	(19,3)	(-6,1)	(-24,4)	(-3,6)	(-27,1)	(20,5)	(-23,21)	(2,2)	(6,1)	(40,4)	(-11,1)	
L2C 3>	(-2,65)	(5,34)	(1,249)	(-3,58)	(-16,9)	(19,63)	(-4,32)	(-1,157)	(18,29)	(-24,19)	(-9,6)	(-23,1)	(4,6)	(2,52)	(-5,8)	(0,7)	
L2C 4>	(-1,28)	(1,178)	(-6,14)	(-3,32)	(7,5)	(-4,13)	(2,44)	(-2,13)	(10,10)	(-10,1)	(5,48)	(-5,5)	(-7,9)	(3,33)	(15,3)	(-11,7)	
L2C 5>	(17,146)	(-9,1)	(5,20)	(-39,24)	(12,1)	(-26,1)	(6,2)	(-42,0)	(-18,24)	(-36,0)	(-37,1)	(-27,1)	(-5,0)	(-32,1)	(1,2)	(10,1)	
L2C 6>	(2,24)	(1,151)	(9,30)	(38,1)	(-2,8)	(4,5)	(-6,202)	(-5,7)	(7,55)	(0,21)	(-1,18)	(-7,13)	(5,55)	(14,28)	(-14,44)	(3,16)	
L2C 7>	(1,131)	(-14,46)	(-15,7)	(14,31)	(0,46)	(-1,28)	(8,32)	(-6,141)	(2,52)	(-16,1)	(7,52)	(15,36)	(-7,68)	(37,4)	(-13,19)	(-8,27)	
L2C 8>	(-1,235)	(1,133)	(2,61)	(6,24)	(-7,25)	(13,140)	(-6,50)	(-9,18)	(14,16)	(7,51)	(21,18)	(0,181)	(-3,1)	(-2,42)	(15,21)	(-8,212)	
L2C 9>	(1,239)	(20,10)	(9,25)	(-1,227)	(5,212)	(-2,121)	(0,38)	(2,85)	(-10,28)	(13,32)	(-22,46)	(-8,82)	(14,42)	(-21,31)	(-14,14)	(-23,3)	
L2C 10>	(1,97)	(2,23)	(-4,14)	(-1,28)	(-10,21)	(10,45)	(5,234)	(-2,91)	(-16,1)	(18,6)	(-11,22)	(15,30)	(-19,15)	(7,2)	(-27,6)	(-18,10)	
L2C 11>	(1,182)	(-6,0)	(25,0)	(-21,0)	(28,0)	(-4,0)	(20,0)	(4,0)	(-15,0)	(-31,0)	(5,0)	(-13,0)	(-11,0)	(1,0)	(1,0)	(1,0)	
L2C 12>	(-15,1)	(-8,1)	(-5,0)	(2,220)	(-4,1)	(-1,0)	(-22,0)	(-10,0)	(20,0)	(1,0)	(5,0)	(1,0)	(1,0)	(1,0)	(1,0)	(1,0)	
L2C 13>	(1,47)	(-4,15)	(-14,178)	(-12,7)	(-13,37)	(-7,6)	(-21,9)	(-8,1)	(-6,18)	(2,11)	(-2,3)	(-16,4)	(-1,13)	(-5,10)	(-28,10)	(5,12)	
L2C 14>	(1,216)	(-12,10)	(29,4)	(21,51)	(7,44)	(16,10)	(-6,204)	(-15,80)	(-29,7)	(-28,36)	(-13,26)	(-1,1)	(-22,9)	(-36,48)	(-5,5)	(-8,46)	
L2C 15>	(-42,5)	(-37,1)	(1,143)	(-1,223)	(29,18)	(-14,90)	(2,29)	(0,16)	(-6,28)	(-8,48)	(-11,16)	(15,22)	(-27,9)	(5,96)	(-2,71)	(-16,27)	
L2C 16>	(-16,146)	(-2,14)	(1,46)	(-28,8)	(-22,10)	(-29,3)	(-21,9)	(-15,27)	(5,27)	(-8,60)	(-11,5)	(-3,5)	(2,20)	(4,4)	(-1,10)	(-51,1)	
L2C 17>	(-9,1)	(-40,1)	(1,251)	(-17,1)	(-7,0)	(5,0)	(-39,0)	(-25,0)	(-6,0)	(-29,0)	(13,0)	(2,0)	(-5,0)	(-30,0)	(-15,0)	(7,0)	
L2C 18>	(19,3)	(-16,17)	(-9,1)	(-18,1)	(-3,2)	(-8,7)	(-1,4)	(-19,2)	(-17,238)	(12,2)	(1,11)	(-10,1)	(2,1)	(5,2)	(-15,3)	(-13,6)	
L2C 19>	(-16,3)	(-43,17)	(-21,222)	(1,42)	(-22,11)	(-18,10)	(0,31)	(22,26)	(23,1)	(-14,2)	(21,7)	(-19,14)	(-9,1)	(-1,4)	(-10,4)	(-42,12)	
L2C 20>	(1,56)	(-21,134)	(-1,3)	(22,5)	(21,2)	(-22,17)	(-43,27)	(-41,1)	(-19,2)	(0,12)	(23,1)	(-42,5)	(24,0)	(2,0)	(3,0)	(30,2)	
L2C 21>	(1,204)	(7,1)	(-22,243)	(-14,1)	(-42,62)	(-43,109)	(22,137)	(-28,3)	(-20,45)	(0,34)	(-19,5)	(-1,18)	(21,54)	(2,1)	(-21,198)	(-44,5)	
L2C 22>	(-43,51)	(-23,2)	(1,31)	(-1,144)	(-21,185)	(-22,50)	(-48,1)	(21,58)	(22,27)	(0,15)	(20,25)	(-44,28)	(7,1)	(-45,2)	(-42,2)	(-2,3)	
L2C 23>	(1,140)	(-24,2)	(-2,14)	(-1,46)	(-29,1)	(-45,9)	(20,33)	(-21,12)	(19,3)	(-22,34)	(10,1)	(-23,6)	(21,17)	(-44,51)	(22,8)	(-5,1)	
L2C 24>	(4,12)	(-45,77)	(-3,39)	(-46,199)	(-1,53)	(-22,51)	(1,79)	(20,14)	(-2,243)	(-5,1)	(-25,6)	(-15,11)	(19,220)	(-23,225)	(2,28)	(-24,25)	
L2C 25>	(-17,3)	(5,33)	(-3,14)	(-25,50)	(1,76)	(-20,9)	(3,16)	(4,13)	(2,96)	(0,90)	(12,8)	(-46,6)	(-34,7)	(-15,14)	(-24,1)	(-28,7)	
L2C 26>	(1,73)	(-21,9)	(0,13)	(-18,14)	(-26,75)	(-32,8)	(-17,10)	(-4,26)	(-33,1)	(-5,20)	(-13,23)	(5,23)	(-11,11)	(4,4)	(-27,12)	(2,9)	
L2C 27>	(1,104)	(14,1)	(-5,12)	(15,42)	(-21,17)	(-48,8)	(-7,25)	(-8,18)	(-18,7)	(0,13)	(-19,49)	(-27,17)	(-1,28)	(-6,15)	(-14,41)	(-26,18)	
L2C 28>	(16,12)	(-14,52)	(-21,19)	(-50,217)	(1,124)	(-29,201)	(-36,8)	(-27,24)	(-22,12)	(-1,1)	(-34,10)	(15,11)	(-7,81)	(5,19)	(10,8)	(7,54)	
L2C 29>	(7,114)	(20,49)	(22,12)	(-7,113)	(29,4)	(-32,1)	(-41,7)	(1,86)	(-6,22)	(-8,48)	(2,34)	(-14,63)	(-50,52)	(-28,127)	(8,66)	(-22,22)	
L2C 30>	(-7,21)	(-51,31)	(-8,18)	(-26,10)	(1,107)	(5,22)	(-28,23)	(-1,42)	(-21,21)	(-40,1)	(-38,10)	(-50,21)	(-32,11)	(-15,11)	(-37,19)	(-36,12)	
L2C 31>	(1,91)	(5,32)	(-30,68)	(-28,7)	(-3,11)	(-32,18)	(-5,9)	(2,25)	(-15,6)	(-29,32)	(-1,28)	(-50,1)	(12,2)	(-7,8)	(-19,4)	(-42,3)	
L2C 32>	(2,30)	(1,67)	(-11,6)	(3,14)	(-1,31)	(-36,4)	(-14,5)	(5,6)	(-29,7)	(-34,5)	(-54,1)	(-5,7)	(-33,9)	(-31,19)	(-15,4)	(-35,4)	
L2C 33>	(1,107)	(-34,33)	(-1,30)	(-28,20)	(-31,10)	(-14,28)	(3,1)	(-51,4)	(-15,6)	(2,12)	(-3,8)	(-30,4)	(-35,13)	(8,8)	(-32,6)	(-10,6)	
L2C 34>	(-7,9)	(3,1)	(2,20)	(1,89)	(-2,10)	(-5,14)	(-1,27)	(-22,5)	(-28,18)	(-36,13)	(-14,10)	(-56,2)	(-33,7)	(8,9)	(-35,10)	(-4,8)	
L2C 35>	(1,93)	(-36,81)	(-33,10)	(2,32)	(-7,65)	(7,6)	(-8,9)	(-28,127)	(-34,39)	(-17,1)	(-1,15)	(-3,14)	(-31,7)	(-2,6)	(3,16)	(-26,11)	
L2C 36>	(1,54)	(-57,5)	(-5,5)	(-37,13)	(-35,41)	(2,17)	(-14,15)	(-29,32)	(-7,57)	(5,11)	(-46,1)	(-21,17)	(-28,49)	(-34,43)	(7,10)	(-18,7)	
L2C 37>	(-50,5)	(2,29)	(-38,65)	(-21,15)	(-2,9)	(-30,16)	(6,1)	(-51,56)	(-28,14)	(10,9)	(5,19)	(-42,8)	(-37,15)	(-14,10)	(1,54)	(-36,32)	
L2C 38>	(-1,18)	(5,20)	(-33,4)	(1,49)	(-22,19)	(-21,11)	(-37,45)	(-35,7)	(-38,11)	(-23,7)	(-8,6)	(3,10)	(-2,8)	(0,8)	(-16,4)	(10,1)	
L2C 39>	(1,46)	(-4,8)	(-24,1)	(-21,10)	(17,8)	(-3,12)	(-20,7)	(5,9)	(-1,10)	(-35,5)	(-23,7)	(-26,3)	(16,5)	(2,31)	(-22,9)	(-6,4)	
L2C 40>	(1,66)	(-3,2)	(-21,154)	(-42,47)	(0,8)	(-43,49)	(-39,4)	(3,3)	(2,5)	(6,1)	(-41,2)	(-20,4)	(-51,1)	(-35,3)	(-6,3)	(-34,1)	
L2C 41>	(-44,30)	(-43,180)	(0,7)	(-21,226)	(-42,9)	(1,38)	(-1,18)	(-22,148)	(-40,5)	(-19,2)	(-20,1)	(2,5)	(-12,1)	(-4,1)	(-34,3)	(11,2)	
L2C 42>	(-43,60)	(-41,10)	(1,83)	(0,12)	(-21,235)	(-1,8)	(-19,1)	(-49,1)	(-22,67)	(2,4)	(-46,0)	(-44,2)	(-20,17)	(-42,26)	(-35,0)	(-27,0)	
L2C 43>	(0,5)	(-1,15)	(1,100)	(-22,167)	(-21,231)	(-42,62)	(-41,0)	(-44,5)	(2,4)	(-37,0)	(-23,5)	(-20,4)	(-43,7)	(-2,0)	(-45,0)	(-35,0)	
L2C 44>	(-45,1)	(1,55)	(-22,180)	(-43,69)	(-59,0)	(-1,98)	(-44,0)	(0,0)	(-23,1)	(-51,8)	(-21,9)	(-36,0)	(-2,2)	(-40,0)	(-29,0)	(-20,0)	
L2C 45>	(-2,172)	(-44,75)	(-1,71)	(3,1)	(-22,8)	(-38,2)	(-23,70)	(1,170)	(-43,2)	(-45,34)	(-46,17)	(-8,4)	(-3,13)	(2,1)	(-14,1)	(-24,7)	
L2C 46>	(-1,26)	(1,33)	(-45,62)	(-44,6)	(-48,7)	(-46,8)	(-39,8)	(-24,6)	(3,10)	(-12,1)	(-3,69)	(-25,5)	(-23,24)	(-2,249)	(-6,6)	(-11,3)	
L2C 47>	(1,38)	(-1,4)	(-5,6)	(-4,8)	(-33,7)	(-24,3)	(2,11)	(-3,6)	(-46,8)	(-25,4)	(-17,8)	(4,1)	(-52,3)	(-21,2)	(-11,6)	(-50,3)	
L2C 48>	(-15,9)	(-38,5)	(-7,5)	(-51,6)	(-5,6)	(2,11)	(-1,7)	(-13,2)	(-24,3)	(-43,15)	(-49,9)	(-47,8)	(1,21)	(-18,5)	(-21,1)	(-33,3)	
L2C 49>	(-6,3)	(-5,3)	(-24,1)	(-48,6)	(-8,16)	(-40,4)	(-39,2)	(1,17)	(7,8)	(-14,2)	(-43,4)	(5,3)	(0,2)	(-7,226)	(-1,9)	(-32,2)	
L2C 50>	(-6,33)	(1,39)	(-8,54)	(-21,28)	(-29,26)	(-41,19)	(-43,27)	(-51,52)	(-49,1)	(-7,123)	(-14,16)	(-1,34)	(-35,50)	(-23,15)	(-52,10)	(-28,31)	
L2C 51>	(-50,6)	(-7,50)	(1,20)	(-51,78)	(-32,20)	(-8,19)	(-36,26)	(-52,74)	(-17,3)	(-1,13)	(-53,16)	(-35,1)	(-13,7)	(-12,3)	(-29,7)	(-45,3)	
L2C 52>	(-52,3)	(5,4)	(-51,15)	(-8,11)	(-9,2)	(-53,15)	(-1,19)	(-4,1)	(2,4)	(-50,7)	(1,28)	(-24,2)	(-14,1)	(-15,1)	(-60,1)	(-38,3)	
L2C 53>	(-1,9)	(1,11)	(-53,25)	(-48,3)	(-51,2)	(-22,3)	(3,2)	(-16,2)	(4,1)	(-38,4)	(-7,3)	(-52,10)	(2,5)	(-15,2)	(-25,1)	(-9,1)	
L2C 54>	(-28,2)	(1,13)	(2,2)	(3,1)	(-61,1)	(-47,2)	(-2,2)	(-34,1)	(-27,2)	(-1,6)	(-19,2)	(-45,3)	(-53,4)	(-35,3)	(-15,2)	(-16,2)	
L2C 55>	(1,9)	(-41,6)	(-1,5)	(-47,4)	(-57,4)	(-53,4)	(-15,2)	(-18,1)	(-7,3)	(-32,2)	(-19,2)	(0,25)	(-3,1)	(-26,1)	(-34,1)	(-55,2)	
L2C 56>	(-55,3)	(1,4)	(-34,1)	(-35,4)	(-49,1)	(-56,1)	(-36,3)	(-48,1)	(-39,2)	(-1,3)	(-45,2)	(3,2)	(-16,1)	(-32,2)	(2,2)	(-9,1)	
L2C 57>	(-41,2)	(-51,3)	(-6,3)	(-22,1)	(-35,1)	(1,5)	(-26,1)	(-12,1)	(-16,1)	(0,2)	(-27,1)	(-43,1)	(-1,3)	(-55,1)	(-49,1)	(-34,2)	
L2C 58>	(1,4)	(-14,1)	(-48,2)	(-35,1)	(-44,1)	(-22,3)	(-11,1)	(-7,1)	(-29,2)	(-33,1)	(-24,1)	(-1,2)	(-2,1)	(-31,1)	(-54,1)	(1,0)	
L2C 59>	(-61,1)	(-44,1)	(-17,1)	(-51,1)	(-58,1)	(-8,1)	(-1,4)	(-25,3)	(-10,1)	(-42,1)	(-63,1)	(-14,1)	(3,2)	(1,2)	(-39,1)	(-56,2)	
L2C 60>	(-57,1)	(0,1)	(-59,1)	(-50,1)	(2,1)	(-7,1)	(-46,1)	(-51,2)	(-35,1)	(-31,1)	(-16,1)	(-1,1)	(-26,1)	(1,0)	(1,0)	(1,0)	
L2C 61>	(-60,1)	(-59,1)	(-3,1)	(-50,1)	(-31,1)	(-32,1)	(-15,1)	(1,0)	(1,0)	(1,0)	(1,0)	(1,0)	(1,0)	(1,0)	(1,0)	(1,0)	
L2C 62>	(-53,1)	(1,1)	(-29,1)	(-58,1)	(-43,4)	(-7,1)	(-55,1)	(-16,1)	(-51,1)	(-6,1)	(1,0)	(1,0)	(1,0)	(1,0)	(1,0)	(1,0)	
L2C 63>	(-44,9)	(-22,95)	(-21,97)	(-1,4)	(-43,8)	(-30,1)	(-6,1)	(-62,1)	(-40,1)	(-41,1)	(1,0)	(1,0)	(1,0)	(1,0)	(1,0)	(1,0)	

DRAM Statistics
 CHANNEL 0
 RQ ROW_BUFFER_HIT:     122098  ROW_BUFFER_MISS:     287649
 DBUS_CONGESTED:     222398
 WQ ROW_BUFFER_HIT:       8539  ROW_BUFFER_MISS:      47161  FULL:          0

 AVG_CONGESTED_CYCLE: 6
