
*** ChampSim Multicore Out-of-Order Simulator ***

Warmup Instructions: 1000000
Simulation Instructions: 10000000
Number of CPUs: 4
LLC sets: 8192
LLC ways: 16
Off-chip DRAM Size: 4096 MB Channels: 1 Width: 64-bit Data Rate: 3200 MT/s

CPU 0 runs /home/virtualcse/Data-Prefetching/ChampSim/dpc3_traces/625.x264_s-18B.champsimtrace.xz
CPU 1 runs /home/virtualcse/Data-Prefetching/ChampSim/dpc3_traces/648.exchange2_s-1699B.champsimtrace.xz
CPU 2 runs /home/virtualcse/Data-Prefetching/ChampSim/dpc3_traces/620.omnetpp_s-874B.champsimtrace.xz
CPU 3 runs /home/virtualcse/Data-Prefetching/ChampSim/dpc3_traces/621.wrf_s-6673B.champsimtrace.xz
Ultra pref. initializing...
Ultra pref. initialized
Ultra pref. initializing...
Ultra pref. initialized
Ultra pref. initializing...
Ultra pref. initialized
Ultra pref. initializing...
Ultra pref. initialized
Ultra pref. initializing...
Ultra pref. initialized
Ultra pref. initializing...
Ultra pref. initialized
Ultra pref. initializing...
Ultra pref. initialized
Ultra pref. initializing...
Ultra pref. initialized

Warmup complete CPU 0 instructions: 1618491 cycles: 548643 (Simulation time: 0 hr 0 min 12 sec) 
Warmup complete CPU 1 instructions: 1789490 cycles: 548643 (Simulation time: 0 hr 0 min 12 sec) 
Warmup complete CPU 2 instructions: 1000003 cycles: 548643 (Simulation time: 0 hr 0 min 12 sec) 
Warmup complete CPU 3 instructions: 1536154 cycles: 548642 (Simulation time: 0 hr 0 min 12 sec) 

Heartbeat CPU 1 instructions: 10000001 cycles: 4042662 heartbeat IPC: 2.47362 cumulative IPC: 2.34988 (Simulation time: 0 hr 0 min 50 sec) 
Heartbeat CPU 0 instructions: 10000000 cycles: 4461080 heartbeat IPC: 2.24161 cumulative IPC: 2.14227 (Simulation time: 0 hr 0 min 54 sec) 
Finished CPU 1 instructions: 10000003 cycles: 4260645 cumulative IPC: 2.34706 (Simulation time: 0 hr 0 min 58 sec) 
Finished CPU 0 instructions: 10000000 cycles: 4673266 cumulative IPC: 2.13983 (Simulation time: 0 hr 1 min 3 sec) 
Heartbeat CPU 3 instructions: 10000001 cycles: 5629539 heartbeat IPC: 1.77634 cumulative IPC: 1.66582 (Simulation time: 0 hr 1 min 7 sec) 
Finished CPU 3 instructions: 10000003 cycles: 5993057 cumulative IPC: 1.6686 (Simulation time: 0 hr 1 min 16 sec) 
Heartbeat CPU 1 instructions: 20000000 cycles: 8234688 heartbeat IPC: 2.38548 cumulative IPC: 2.3693 (Simulation time: 0 hr 1 min 35 sec) 
Heartbeat CPU 0 instructions: 20000001 cycles: 9274371 heartbeat IPC: 2.07758 cumulative IPC: 2.10659 (Simulation time: 0 hr 1 min 45 sec) 
Heartbeat CPU 3 instructions: 20000002 cycles: 11093220 heartbeat IPC: 1.83027 cumulative IPC: 1.75103 (Simulation time: 0 hr 2 min 4 sec) 
Heartbeat CPU 1 instructions: 30000001 cycles: 12421117 heartbeat IPC: 2.38867 cumulative IPC: 2.37613 (Simulation time: 0 hr 2 min 19 sec) 
Heartbeat CPU 0 instructions: 30000003 cycles: 13983579 heartbeat IPC: 2.1235 cumulative IPC: 2.11252 (Simulation time: 0 hr 2 min 34 sec) 
Heartbeat CPU 3 instructions: 30000003 cycles: 15735504 heartbeat IPC: 2.15411 cumulative IPC: 1.87424 (Simulation time: 0 hr 2 min 52 sec) 
Heartbeat CPU 1 instructions: 40000002 cycles: 16971286 heartbeat IPC: 2.19772 cumulative IPC: 2.3267 (Simulation time: 0 hr 3 min 5 sec) 
Heartbeat CPU 0 instructions: 40000001 cycles: 18738471 heartbeat IPC: 2.1031 cumulative IPC: 2.11005 (Simulation time: 0 hr 3 min 19 sec) 
Heartbeat CPU 1 instructions: 50000000 cycles: 21333413 heartbeat IPC: 2.29246 cumulative IPC: 2.31951 (Simulation time: 0 hr 3 min 39 sec) 
Heartbeat CPU 0 instructions: 50000002 cycles: 23611094 heartbeat IPC: 2.05228 cumulative IPC: 2.09785 (Simulation time: 0 hr 3 min 56 sec) 
Heartbeat CPU 1 instructions: 60000001 cycles: 25667268 heartbeat IPC: 2.30741 cumulative IPC: 2.31742 (Simulation time: 0 hr 4 min 12 sec) 
Heartbeat CPU 2 instructions: 10000002 cycles: 27157694 heartbeat IPC: 0.36822 cumulative IPC: 0.338231 (Simulation time: 0 hr 4 min 23 sec) 
Heartbeat CPU 0 instructions: 60000000 cycles: 28657584 heartbeat IPC: 1.98157 cumulative IPC: 2.07697 (Simulation time: 0 hr 4 min 34 sec) 
Heartbeat CPU 1 instructions: 70000003 cycles: 29978616 heartbeat IPC: 2.31946 cumulative IPC: 2.31772 (Simulation time: 0 hr 4 min 45 sec) 
Heartbeat CPU 3 instructions: 40000002 cycles: 30199501 heartbeat IPC: 0.691372 cumulative IPC: 1.29723 (Simulation time: 0 hr 4 min 47 sec) 
Finished CPU 2 instructions: 10000001 cycles: 30355913 cumulative IPC: 0.329425 (Simulation time: 0 hr 4 min 53 sec) 

CPU 0 Branch Prediction Accuracy: 97.615% MPKI: 0.861845 Average ROB Occupancy at Mispredict: 237.617

CPU 1 Branch Prediction Accuracy: 97.0693% MPKI: 4.02341 Average ROB Occupancy at Mispredict: 49.621

CPU 2 Branch Prediction Accuracy: 96.7094% MPKI: 4.878 Average ROB Occupancy at Mispredict: 98.8214

CPU 3 Branch Prediction Accuracy: 99.3318% MPKI: 0.415613 Average ROB Occupancy at Mispredict: 263.968

ChampSim completed all CPUs

Total Simulation Statistics (not including warmup)

CPU 0 cumulative IPC: 2.07391 instructions: 62955557 cycles: 30355913
L1D TOTAL     ACCESS:   11815024  HIT:   11786511  MISS:      28513
L1D LOAD      ACCESS:    4580353  HIT:    4559388  MISS:      20965
L1D RFO       ACCESS:    4158498  HIT:    4157855  MISS:        643
L1D PREFETCH  ACCESS:    3076173  HIT:    3069268  MISS:       6905
L1D WRITEBACK ACCESS:          0  HIT:          0  MISS:          0
L1I TOTAL     ACCESS:    3412420  HIT:    3412398  MISS:         22
L1I LOAD      ACCESS:    3412420  HIT:    3412398  MISS:         22
L1I RFO       ACCESS:          0  HIT:          0  MISS:          0
L1I PREFETCH  ACCESS:          0  HIT:          0  MISS:          0
L1I WRITEBACK ACCESS:          0  HIT:          0  MISS:          0
L2C TOTAL     ACCESS:      68904  HIT:      45179  MISS:      23725
L2C LOAD      ACCESS:      19566  HIT:       9476  MISS:      10090
L2C RFO       ACCESS:        643  HIT:         31  MISS:        612
L2C PREFETCH  ACCESS:      47960  HIT:      34943  MISS:      13017
L2C WRITEBACK ACCESS:        735  HIT:        729  MISS:          6

L1D -512>	(0,104)	(146,1)	(6,4)	(1,27)	(5,2)	(2,18)	(-9,8)	(28,6)	(292,2)	(-255,2)	(4,27)	(3,9)	(68,5)	(10,5)	(-1,10)	(8,11)	
L1D -511>	(1,26)	(2,90)	(0,2)	(3,17)	(5,1)	(4,34)	(6,10)	(8,1)	(7,1)	(1,0)	(1,0)	(1,0)	(1,0)	(1,0)	(1,0)	(1,0)	
L1D -510>	(2,87)	(8,10)	(4,15)	(18,2)	(6,10)	(0,25)	(1,9)	(-1,0)	(3,2)	(1,0)	(1,0)	(1,0)	(1,0)	(1,0)	(1,0)	(1,0)	
L1D -509>	(-1,36)	(2,118)	(260,1)	(1,22)	(3,10)	(4,37)	(5,1)	(6,3)	(1,0)	(1,0)	(1,0)	(1,0)	(1,0)	(1,0)	(1,0)	(1,0)	
L1D -508>	(0,17)	(2,121)	(4,29)	(6,3)	(-1,3)	(3,2)	(5,0)	(1,16)	(-2,2)	(1,0)	(1,0)	(1,0)	(1,0)	(1,0)	(1,0)	(1,0)	
L1D -507>	(2,46)	(-1,4)	(3,6)	(4,8)	(1,11)	(42,1)	(0,1)	(-2,1)	(9,1)	(10,1)	(1,0)	(1,0)	(1,0)	(1,0)	(1,0)	(1,0)	
L1D -506>	(-1,5)	(4,16)	(1,21)	(2,101)	(3,7)	(6,3)	(8,6)	(42,1)	(0,5)	(1,0)	(1,0)	(1,0)	(1,0)	(1,0)	(1,0)	(1,0)	
L1D -505>	(-1,7)	(5,1)	(2,20)	(0,1)	(4,4)	(3,2)	(1,6)	(6,1)	(52,1)	(1,0)	(1,0)	(1,0)	(1,0)	(1,0)	(1,0)	(1,0)	
L1D -504>	(-1,8)	(4,12)	(2,29)	(6,4)	(98,2)	(9,2)	(3,3)	(47,1)	(-4,1)	(8,2)	(7,1)	(1,12)	(0,10)	(1,0)	(1,0)	(1,0)	
L1D -503>	(-1,8)	(2,14)	(1,2)	(18,1)	(4,4)	(-6,1)	(1,0)	(1,0)	(1,0)	(1,0)	(1,0)	(1,0)	(1,0)	(1,0)	(1,0)	(1,0)	
L1D -502>	(112,1)	(47,1)	(0,1)	(79,1)	(1,0)	(1,0)	(1,0)	(1,0)	(1,0)	(1,0)	(1,0)	(1,0)	(1,0)	(1,0)	(1,0)	(1,0)	
L1D -501>	(3,1)	(2,1)	(-2,1)	(1,0)	(1,0)	(1,0)	(1,0)	(1,0)	(1,0)	(1,0)	(1,0)	(1,0)	(1,0)	(1,0)	(1,0)	(1,0)	
L1D -500>	(112,1)	(5,1)	(18,1)	(4,1)	(99,1)	(0,1)	(98,1)	(1,0)	(1,0)	(1,0)	(1,0)	(1,0)	(1,0)	(1,0)	(1,0)	(1,0)	
L1D -499>	(1,2)	(0,3)	(3,2)	(4,2)	(2,6)	(-2,2)	(1,0)	(1,0)	(1,0)	(1,0)	(1,0)	(1,0)	(1,0)	(1,0)	(1,0)	(1,0)	
L1D -498>	(2,12)	(69,1)	(6,2)	(88,1)	(106,1)	(93,1)	(4,4)	(1,3)	(42,2)	(47,1)	(1,0)	(1,0)	(1,0)	(1,0)	(1,0)	(1,0)	
L1D -497>	(2,6)	(4,3)	(0,2)	(1,0)	(1,0)	(1,0)	(1,0)	(1,0)	(1,0)	(1,0)	(1,0)	(1,0)	(1,0)	(1,0)	(1,0)	(1,0)	
L1D -496>	(1,4)	(82,1)	(-1,1)	(2,5)	(4,1)	(135,1)	(332,1)	(0,2)	(1,0)	(1,0)	(1,0)	(1,0)	(1,0)	(1,0)	(1,0)	(1,0)	
L1D -495>	(-1,1)	(1,4)	(-4,1)	(28,1)	(2,6)	(4,3)	(1,0)	(1,0)	(1,0)	(1,0)	(1,0)	(1,0)	(1,0)	(1,0)	(1,0)	(1,0)	
L1D -494>	(102,1)	(1,5)	(4,1)	(2,3)	(-16,1)	(334,1)	(99,1)	(1,0)	(1,0)	(1,0)	(1,0)	(1,0)	(1,0)	(1,0)	(1,0)	(1,0)	
L1D -493>	(1,3)	(2,4)	(4,1)	(5,1)	(1,0)	(1,0)	(1,0)	(1,0)	(1,0)	(1,0)	(1,0)	(1,0)	(1,0)	(1,0)	(1,0)	(1,0)	
L1D -492>	(1,3)	(4,4)	(2,5)	(5,2)	(79,1)	(492,1)	(0,1)	(1,0)	(1,0)	(1,0)	(1,0)	(1,0)	(1,0)	(1,0)	(1,0)	(1,0)	
L1D -491>	(0,1)	(3,2)	(2,4)	(5,1)	(4,1)	(1,1)	(1,0)	(1,0)	(1,0)	(1,0)	(1,0)	(1,0)	(1,0)	(1,0)	(1,0)	(1,0)	
L1D -490>	(-1,3)	(2,4)	(-2,1)	(1,2)	(5,1)	(47,1)	(8,1)	(1,0)	(1,0)	(1,0)	(1,0)	(1,0)	(1,0)	(1,0)	(1,0)	(1,0)	
L1D -489>	(1,2)	(-1,3)	(490,1)	(38,28)	(75,8)	(37,22)	(225,4)	(150,2)	(263,1)	(112,3)	(188,2)	(3,3)	(0,1)	(4,2)	(2,3)	(-2,1)	
L1D -488>	(-1,1)	(47,6)	(0,3)	(79,1)	(342,1)	(1,3)	(2,6)	(65,1)	(1,0)	(1,0)	(1,0)	(1,0)	(1,0)	(1,0)	(1,0)	(1,0)	
L1D -487>	(13,1)	(2,1)	(1,3)	(1,0)	(1,0)	(1,0)	(1,0)	(1,0)	(1,0)	(1,0)	(1,0)	(1,0)	(1,0)	(1,0)	(1,0)	(1,0)	
L1D -486>	(1,3)	(0,5)	(2,8)	(98,1)	(4,2)	(3,1)	(44,1)	(146,1)	(55,1)	(1,0)	(1,0)	(1,0)	(1,0)	(1,0)	(1,0)	(1,0)	
L1D -485>	(1,3)	(2,4)	(4,1)	(3,3)	(0,1)	(1,0)	(1,0)	(1,0)	(1,0)	(1,0)	(1,0)	(1,0)	(1,0)	(1,0)	(1,0)	(1,0)	
L1D -484>	(2,7)	(4,4)	(85,2)	(0,4)	(47,1)	(93,1)	(99,1)	(1,0)	(1,0)	(1,0)	(1,0)	(1,0)	(1,0)	(1,0)	(1,0)	(1,0)	
L1D -483>	(1,4)	(483,1)	(3,2)	(4,2)	(2,1)	(5,1)	(92,1)	(348,1)	(0,1)	(1,0)	(1,0)	(1,0)	(1,0)	(1,0)	(1,0)	(1,0)	
L1D -482>	(98,3)	(424,1)	(2,3)	(4,2)	(105,1)	(6,1)	(1,1)	(1,0)	(1,0)	(1,0)	(1,0)	(1,0)	(1,0)	(1,0)	(1,0)	(1,0)	
L1D -481>	(140,1)	(-1,4)	(3,1)	(4,1)	(2,5)	(7,1)	(18,1)	(1,0)	(1,0)	(1,0)	(1,0)	(1,0)	(1,0)	(1,0)	(1,0)	(1,0)	
L1D -480>	(14,1)	(146,2)	(1,1)	(2,10)	(0,4)	(4,2)	(192,1)	(79,1)	(99,1)	(1,0)	(1,0)	(1,0)	(1,0)	(1,0)	(1,0)	(1,0)	
L1D -479>	(-1,1)	(4,1)	(348,1)	(12,1)	(1,1)	(3,2)	(2,2)	(350,1)	(1,0)	(1,0)	(1,0)	(1,0)	(1,0)	(1,0)	(1,0)	(1,0)	
L1D -478>	(5,1)	(34,1)	(4,2)	(28,1)	(1,1)	(0,5)	(67,1)	(47,1)	(352,1)	(1,0)	(1,0)	(1,0)	(1,0)	(1,0)	(1,0)	(1,0)	
L1D -477>	(1,2)	(8,1)	(6,1)	(2,2)	(4,2)	(3,1)	(0,1)	(1,0)	(1,0)	(1,0)	(1,0)	(1,0)	(1,0)	(1,0)	(1,0)	(1,0)	
L1D -476>	(2,6)	(-1,1)	(3,1)	(1,1)	(4,3)	(0,3)	(456,1)	(58,1)	(1,0)	(1,0)	(1,0)	(1,0)	(1,0)	(1,0)	(1,0)	(1,0)	
L1D -475>	(2,6)	(0,2)	(136,1)	(3,1)	(4,3)	(442,1)	(1,0)	(1,0)	(1,0)	(1,0)	(1,0)	(1,0)	(1,0)	(1,0)	(1,0)	(1,0)	
L1D -474>	(55,1)	(0,2)	(5,1)	(2,5)	(-1,1)	(264,1)	(4,2)	(1,2)	(1,0)	(1,0)	(1,0)	(1,0)	(1,0)	(1,0)	(1,0)	(1,0)	
L1D -473>	(-1,3)	(1,1)	(0,2)	(5,1)	(6,1)	(140,2)	(2,4)	(1,0)	(1,0)	(1,0)	(1,0)	(1,0)	(1,0)	(1,0)	(1,0)	(1,0)	
L1D -472>	(0,2)	(1,4)	(342,1)	(2,6)	(4,2)	(356,1)	(101,1)	(5,1)	(336,1)	(1,0)	(1,0)	(1,0)	(1,0)	(1,0)	(1,0)	(1,0)	
L1D -471>	(1,2)	(0,1)	(124,1)	(438,1)	(366,1)	(146,1)	(360,1)	(1,0)	(1,0)	(1,0)	(1,0)	(1,0)	(1,0)	(1,0)	(1,0)	(1,0)	
L1D -470>	(2,3)	(409,1)	(0,7)	(4,1)	(408,1)	(45,1)	(1,1)	(1,0)	(1,0)	(1,0)	(1,0)	(1,0)	(1,0)	(1,0)	(1,0)	(1,0)	
L1D -469>	(1,2)	(0,1)	(116,1)	(4,1)	(2,2)	(82,1)	(1,0)	(1,0)	(1,0)	(1,0)	(1,0)	(1,0)	(1,0)	(1,0)	(1,0)	(1,0)	
L1D -468>	(2,9)	(107,1)	(69,1)	(52,1)	(1,3)	(4,1)	(88,1)	(346,1)	(0,1)	(1,0)	(1,0)	(1,0)	(1,0)	(1,0)	(1,0)	(1,0)	
L1D -467>	(0,4)	(4,1)	(3,2)	(439,1)	(126,1)	(108,1)	(-1,1)	(1,0)	(1,0)	(1,0)	(1,0)	(1,0)	(1,0)	(1,0)	(1,0)	(1,0)	
L1D -466>	(2,4)	(160,1)	(-1,1)	(0,2)	(4,3)	(42,3)	(344,1)	(1,1)	(82,1)	(-42,1)	(1,0)	(1,0)	(1,0)	(1,0)	(1,0)	(1,0)	
L1D -465>	(-42,2)	(364,1)	(29,1)	(2,5)	(-1,1)	(5,1)	(6,1)	(1,0)	(1,0)	(1,0)	(1,0)	(1,0)	(1,0)	(1,0)	(1,0)	(1,0)	
L1D -464>	(385,2)	(-1,1)	(41,1)	(-42,4)	(0,2)	(4,1)	(3,1)	(366,1)	(467,1)	(1,1)	(1,0)	(1,0)	(1,0)	(1,0)	(1,0)	(1,0)	
L1D -463>	(0,2)	(-1,1)	(-42,1)	(1,1)	(2,1)	(122,1)	(8,1)	(1,0)	(1,0)	(1,0)	(1,0)	(1,0)	(1,0)	(1,0)	(1,0)	(1,0)	
L1D -462>	(129,1)	(2,1)	(6,1)	(0,4)	(-42,1)	(366,1)	(1,2)	(77,1)	(268,1)	(1,0)	(1,0)	(1,0)	(1,0)	(1,0)	(1,0)	(1,0)	
L1D -461>	(108,2)	(38,1)	(465,1)	(68,1)	(29,1)	(0,2)	(2,1)	(112,1)	(1,0)	(1,0)	(1,0)	(1,0)	(1,0)	(1,0)	(1,0)	(1,0)	
L1D -460>	(79,1)	(97,1)	(0,2)	(344,1)	(85,1)	(1,1)	(47,1)	(1,0)	(1,0)	(1,0)	(1,0)	(1,0)	(1,0)	(1,0)	(1,0)	(1,0)	
L1D -459>	(120,1)	(459,1)	(368,1)	(1,2)	(300,1)	(5,1)	(2,1)	(0,1)	(124,1)	(1,0)	(1,0)	(1,0)	(1,0)	(1,0)	(1,0)	(1,0)	
L1D -458>	(91,2)	(1,3)	(0,2)	(374,1)	(354,1)	(362,1)	(134,1)	(-6,1)	(98,1)	(1,0)	(1,0)	(1,0)	(1,0)	(1,0)	(1,0)	(1,0)	
L1D -457>	(1,2)	(0,2)	(-42,1)	(19,1)	(112,1)	(2,1)	(1,0)	(1,0)	(1,0)	(1,0)	(1,0)	(1,0)	(1,0)	(1,0)	(1,0)	(1,0)	
L1D -456>	(1,6)	(4,3)	(71,1)	(374,1)	(91,1)	(0,3)	(372,1)	(-42,3)	(2,1)	(385,2)	(370,1)	(5,1)	(1,0)	(1,0)	(1,0)	(1,0)	
L1D -455>	(1,3)	(68,15)	(2,6)	(3,1)	(86,1)	(4,1)	(124,1)	(29,1)	(1,0)	(1,0)	(1,0)	(1,0)	(1,0)	(1,0)	(1,0)	(1,0)	
L1D -454>	(98,1)	(0,13)	(6,1)	(1,24)	(-9,1)	(85,3)	(57,2)	(83,1)	(457,3)	(442,1)	(87,1)	(374,1)	(1,0)	(1,0)	(1,0)	(1,0)	
L1D -453>	(-1,1)	(1,2)	(0,1)	(334,1)	(112,1)	(2,2)	(110,1)	(447,1)	(1,0)	(1,0)	(1,0)	(1,0)	(1,0)	(1,0)	(1,0)	(1,0)	
L1D -452>	(0,1)	(2,1)	(4,1)	(1,4)	(69,1)	(38,10)	(150,3)	(75,3)	(263,4)	(113,2)	(300,1)	(3,1)	(318,1)	(378,1)	(366,1)	(1,0)	
L1D -451>	(1,1)	(0,2)	(2,1)	(100,1)	(378,1)	(37,20)	(75,2)	(150,1)	(112,1)	(262,1)	(70,3)	(88,1)	(1,0)	(1,0)	(1,0)	(1,0)	
L1D -450>	(1,2)	(2,3)	(5,1)	(0,1)	(4,1)	(97,1)	(342,1)	(290,1)	(-42,1)	(1,0)	(1,0)	(1,0)	(1,0)	(1,0)	(1,0)	(1,0)	
L1D -449>	(68,98)	(2,4)	(88,57)	(0,71)	(110,3)	(1,4)	(176,3)	(-1,4)	(352,1)	(-42,1)	(264,1)	(6,1)	(1,0)	(1,0)	(1,0)	(1,0)	
L1D -448>	(61,1)	(378,2)	(0,7)	(68,4)	(380,1)	(-42,4)	(1,3)	(3,1)	(48,1)	(2,1)	(1,0)	(1,0)	(1,0)	(1,0)	(1,0)	(1,0)	
L1D -447>	(5,9)	(0,3)	(1,7)	(88,2)	(-6,1)	(108,1)	(-14,1)	(414,3)	(6,1)	(1,0)	(1,0)	(1,0)	(1,0)	(1,0)	(1,0)	(1,0)	
L1D -446>	(1,8)	(4,3)	(0,4)	(2,1)	(77,1)	(154,1)	(382,1)	(1,0)	(1,0)	(1,0)	(1,0)	(1,0)	(1,0)	(1,0)	(1,0)	(1,0)	
L1D -445>	(88,3)	(5,2)	(2,3)	(-10,1)	(380,1)	(8,1)	(1,2)	(1,0)	(1,0)	(1,0)	(1,0)	(1,0)	(1,0)	(1,0)	(1,0)	(1,0)	
L1D -444>	(0,11)	(1,17)	(88,4)	(2,4)	(4,1)	(445,1)	(17,1)	(310,1)	(105,1)	(356,1)	(384,2)	(1,0)	(1,0)	(1,0)	(1,0)	(1,0)	
L1D -443>	(0,16)	(1,39)	(-28,1)	(386,1)	(88,5)	(5,2)	(402,1)	(3,1)	(102,1)	(6,1)	(4,1)	(2,1)	(1,0)	(1,0)	(1,0)	(1,0)	
L1D -442>	(1,109)	(0,8)	(88,2)	(6,1)	(409,0)	(40,0)	(2,0)	(5,0)	(61,0)	(1,0)	(1,0)	(1,0)	(1,0)	(1,0)	(1,0)	(1,0)	
L1D -441>	(1,22)	(0,82)	(88,33)	(264,1)	(176,23)	(396,1)	(440,0)	(-42,0)	(-1,0)	(1,0)	(1,0)	(1,0)	(1,0)	(1,0)	(1,0)	(1,0)	
L1D -440>	(0,68)	(2,0)	(88,29)	(-1,0)	(1,0)	(-42,0)	(1,0)	(1,0)	(1,0)	(1,0)	(1,0)	(1,0)	(1,0)	(1,0)	(1,0)	(1,0)	
L1D -439>	(0,73)	(1,11)	(-1,3)	(87,6)	(88,109)	(2,0)	(86,1)	(70,0)	(1,0)	(1,0)	(1,0)	(1,0)	(1,0)	(1,0)	(1,0)	(1,0)	
L1D -438>	(2,2)	(0,4)	(-9,1)	(53,1)	(87,2)	(88,1)	(438,2)	(79,1)	(142,1)	(61,1)	(390,1)	(1,1)	(4,2)	(91,1)	(392,1)	(1,0)	
L1D -437>	(1,3)	(4,1)	(33,1)	(336,1)	(88,2)	(-20,1)	(10,1)	(2,1)	(278,1)	(390,1)	(102,1)	(5,1)	(1,0)	(1,0)	(1,0)	(1,0)	
L1D -436>	(0,6)	(63,3)	(-1,1)	(4,2)	(2,1)	(1,2)	(108,1)	(390,1)	(88,1)	(433,1)	(54,1)	(118,1)	(107,1)	(392,1)	(1,0)	(1,0)	
L1D -435>	(1,3)	(0,4)	(88,2)	(120,1)	(70,1)	(2,1)	(4,1)	(1,0)	(1,0)	(1,0)	(1,0)	(1,0)	(1,0)	(1,0)	(1,0)	(1,0)	
L1D -434>	(392,1)	(5,4)	(63,1)	(0,5)	(108,1)	(88,1)	(1,5)	(3,1)	(2,3)	(4,1)	(394,1)	(124,1)	(401,1)	(1,0)	(1,0)	(1,0)	
L1D -433>	(2,3)	(-1,1)	(15,1)	(0,3)	(88,2)	(-34,1)	(61,1)	(-42,1)	(5,3)	(396,1)	(1,1)	(-10,1)	(1,0)	(1,0)	(1,0)	(1,0)	
L1D -432>	(414,2)	(394,3)	(396,1)	(88,2)	(2,1)	(1,5)	(5,1)	(0,6)	(40,1)	(3,2)	(-42,1)	(61,1)	(1,0)	(1,0)	(1,0)	(1,0)	
L1D -431>	(-20,1)	(88,4)	(0,2)	(-42,1)	(300,1)	(468,1)	(1,2)	(100,1)	(4,2)	(1,0)	(1,0)	(1,0)	(1,0)	(1,0)	(1,0)	(1,0)	
L1D -430>	(63,1)	(436,1)	(-1,1)	(122,1)	(4,1)	(362,1)	(398,1)	(0,8)	(2,1)	(88,2)	(100,1)	(1,4)	(-42,1)	(102,1)	(430,1)	(144,1)	
L1D -429>	(1,2)	(384,1)	(0,4)	(2,1)	(88,1)	(-10,1)	(5,2)	(7,1)	(1,0)	(1,0)	(1,0)	(1,0)	(1,0)	(1,0)	(1,0)	(1,0)	
L1D -428>	(1,5)	(398,1)	(2,1)	(88,1)	(0,4)	(100,1)	(-42,2)	(75,1)	(400,2)	(61,1)	(410,1)	(1,0)	(1,0)	(1,0)	(1,0)	(1,0)	
L1D -427>	(28,86)	(1,4)	(5,2)	(0,2)	(402,2)	(394,1)	(-5,0)	(-28,0)	(18,0)	(1,0)	(1,0)	(1,0)	(1,0)	(1,0)	(1,0)	(1,0)	
L1D -426>	(0,6)	(1,42)	(27,34)	(414,9)	(8,1)	(40,14)	(4,6)	(34,2)	(37,1)	(88,1)	(-20,1)	(-2,1)	(83,1)	(338,1)	(2,3)	(356,1)	
L1D -425>	(5,3)	(-1,1)	(402,1)	(1,5)	(0,5)	(384,1)	(392,1)	(-6,1)	(-10,1)	(2,1)	(1,0)	(1,0)	(1,0)	(1,0)	(1,0)	(1,0)	
L1D -424>	(0,7)	(1,5)	(406,2)	(-56,1)	(-20,1)	(412,2)	(5,1)	(404,2)	(103,1)	(-42,1)	(71,1)	(4,1)	(2,1)	(362,1)	(1,0)	(1,0)	
L1D -423>	(1,7)	(5,7)	(-1,1)	(-10,6)	(4,1)	(2,3)	(382,1)	(376,1)	(0,1)	(390,1)	(1,0)	(1,0)	(1,0)	(1,0)	(1,0)	(1,0)	
L1D -422>	(2,44)	(404,1)	(6,1)	(10,1)	(408,1)	(348,1)	(14,1)	(0,4)	(389,1)	(91,1)	(352,1)	(1,4)	(34,1)	(386,1)	(368,1)	(89,1)	
L1D -421>	(1,4)	(3,1)	(-9,1)	(-43,1)	(0,2)	(2,2)	(380,1)	(-10,1)	(-1,1)	(5,2)	(384,1)	(1,0)	(1,0)	(1,0)	(1,0)	(1,0)	
L1D -420>	(28,2)	(6,2)	(69,3)	(0,2)	(364,1)	(34,1)	(1,7)	(4,1)	(146,1)	(92,1)	(5,1)	(396,1)	(420,1)	(-42,1)	(1,0)	(1,0)	
L1D -419>	(1,4)	(11,3)	(386,1)	(16,2)	(175,1)	(5,3)	(378,3)	(2,1)	(76,1)	(0,4)	(88,1)	(-26,1)	(410,1)	(350,1)	(-1,1)	(420,1)	
L1D -418>	(385,1)	(406,3)	(1,3)	(-1,1)	(410,2)	(0,12)	(412,1)	(246,1)	(400,1)	(336,1)	(422,1)	(419,3)	(418,2)	(5,1)	(100,1)	(195,1)	
L1D -417>	(418,1)	(-10,122)	(31,1)	(414,0)	(28,0)	(1,0)	(1,0)	(1,0)	(1,0)	(1,0)	(1,0)	(1,0)	(1,0)	(1,0)	(1,0)	(1,0)	
L1D -416>	(1,25)	(0,16)	(61,1)	(414,31)	(412,4)	(417,1)	(107,1)	(5,1)	(392,1)	(404,1)	(410,1)	(416,14)	(415,2)	(88,2)	(17,1)	(110,1)	
L1D -415>	(1,29)	(0,77)	(414,123)	(-1,2)	(415,40)	(5,4)	(-26,1)	(-42,1)	(-80,1)	(-3,1)	(-2,6)	(-63,0)	(416,2)	(-12,0)	(16,0)	(10,0)	
L1D -414>	(1,2)	(100,0)	(0,46)	(-1,1)	(414,86)	(415,12)	(-18,0)	(-45,0)	(-23,0)	(30,0)	(-2,4)	(206,0)	(164,0)	(413,0)	(67,0)	(88,0)	
L1D -413>	(90,0)	(0,11)	(11,2)	(-20,0)	(9,0)	(32,0)	(2,0)	(22,0)	(-1,9)	(1,3)	(108,0)	(212,0)	(-41,0)	(413,68)	(412,2)	(414,21)	
L1D -412>	(413,40)	(0,61)	(412,81)	(1,8)	(394,1)	(418,1)	(-76,0)	(16,0)	(416,0)	(17,1)	(414,2)	(104,0)	(5,0)	(-2,0)	(1,0)	(1,0)	
L1D -411>	(0,81)	(-7,2)	(5,0)	(411,1)	(412,0)	(1,0)	(1,0)	(1,0)	(1,0)	(1,0)	(1,0)	(1,0)	(1,0)	(1,0)	(1,0)	(1,0)	
L1D -410>	(-2,4)	(0,5)	(411,3)	(410,4)	(2,2)	(24,1)	(392,1)	(53,2)	(414,2)	(92,1)	(1,4)	(402,1)	(424,1)	(377,1)	(-1,1)	(3,2)	
L1D -409>	(0,3)	(1,9)	(409,3)	(2,2)	(-10,1)	(415,1)	(-1,1)	(5,3)	(410,2)	(414,1)	(88,1)	(376,1)	(403,1)	(1,0)	(1,0)	(1,0)	
L1D -408>	(-1,2)	(0,7)	(88,2)	(396,2)	(3,3)	(1,7)	(-42,1)	(24,1)	(409,1)	(408,2)	(216,1)	(390,1)	(412,1)	(2,1)	(394,1)	(420,1)	
L1D -407>	(0,14)	(387,1)	(1,5)	(5,3)	(407,2)	(408,1)	(4,3)	(9,2)	(62,1)	(2,3)	(-10,1)	(-20,1)	(1,0)	(1,0)	(1,0)	(1,0)	
L1D -406>	(9,40)	(394,5)	(2,1)	(0,9)	(406,3)	(1,10)	(388,1)	(88,1)	(352,1)	(407,1)	(3,1)	(4,1)	(26,4)	(400,2)	(300,1)	(1,0)	
L1D -405>	(1,6)	(398,1)	(0,0)	(470,0)	(395,91)	(56,0)	(364,0)	(5,3)	(2,1)	(405,1)	(3,1)	(406,0)	(26,0)	(414,0)	(385,0)	(368,0)	
L1D -404>	(1,9)	(44,10)	(5,2)	(2,27)	(4,3)	(9,121)	(0,9)	(392,2)	(404,3)	(108,1)	(364,1)	(403,2)	(24,1)	(405,3)	(410,1)	(386,2)	
L1D -403>	(-2,4)	(61,1)	(88,3)	(0,7)	(354,1)	(404,2)	(403,6)	(5,4)	(1,3)	(44,8)	(4,3)	(48,3)	(9,1)	(-1,29)	(402,1)	(366,1)	
L1D -402>	(2,1)	(0,9)	(3,2)	(276,1)	(88,3)	(403,9)	(390,6)	(5,1)	(26,1)	(402,8)	(404,1)	(1,3)	(16,13)	(9,1)	(-2,1)	(126,1)	
L1D -401>	(1,6)	(395,3)	(0,7)	(402,7)	(88,1)	(5,3)	(-10,1)	(382,2)	(401,5)	(7,1)	(12,1)	(407,1)	(6,1)	(1,0)	(1,0)	(1,0)	
L1D -400>	(1,3)	(3,1)	(208,1)	(58,1)	(392,1)	(18,1)	(400,6)	(0,8)	(44,20)	(2,1)	(401,7)	(364,1)	(5,26)	(382,1)	(4,1)	(388,1)	
L1D -399>	(0,5)	(399,5)	(330,1)	(1,5)	(-14,1)	(126,1)	(5,6)	(-10,1)	(400,1)	(2,3)	(9,23)	(4,5)	(16,6)	(3,1)	(404,1)	(1,0)	
L1D -398>	(2,5)	(-42,19)	(1,5)	(398,5)	(0,3)	(386,2)	(6,1)	(399,2)	(404,2)	(370,1)	(395,4)	(4,1)	(26,11)	(18,1)	(414,1)	(408,1)	
L1D -397>	(397,3)	(2,1)	(0,2)	(5,3)	(421,1)	(8,1)	(398,1)	(282,1)	(1,0)	(1,0)	(1,0)	(1,0)	(1,0)	(1,0)	(1,0)	(1,0)	
L1D -396>	(2,2)	(0,5)	(88,2)	(-6,1)	(1,6)	(5,2)	(396,6)	(400,1)	(4,1)	(386,1)	(-2,1)	(397,1)	(1,0)	(1,0)	(1,0)	(1,0)	
L1D -395>	(2,3)	(0,3)	(395,7)	(412,1)	(9,8)	(5,6)	(8,1)	(44,9)	(1,1)	(385,1)	(1,0)	(1,0)	(1,0)	(1,0)	(1,0)	(1,0)	
L1D -394>	(1,5)	(2,2)	(382,2)	(0,7)	(4,1)	(-1,1)	(458,1)	(395,7)	(9,3)	(26,3)	(76,1)	(43,2)	(37,1)	(388,1)	(52,1)	(62,1)	
L1D -393>	(0,7)	(393,3)	(1,1)	(5,1)	(2,2)	(394,5)	(-20,1)	(56,1)	(-7,1)	(391,1)	(1,0)	(1,0)	(1,0)	(1,0)	(1,0)	(1,0)	
L1D -392>	(348,1)	(1,5)	(394,1)	(370,1)	(0,2)	(393,3)	(5,2)	(-94,1)	(392,1)	(410,1)	(390,4)	(1,0)	(1,0)	(1,0)	(1,0)	(1,0)	
L1D -391>	(1,8)	(0,2)	(391,4)	(358,1)	(312,1)	(-10,1)	(392,2)	(118,1)	(2,1)	(-14,1)	(368,1)	(44,1)	(414,1)	(5,1)	(389,4)	(1,0)	
L1D -390>	(0,3)	(2,2)	(-9,1)	(390,5)	(1,4)	(391,3)	(5,3)	(3,1)	(392,1)	(-108,1)	(74,1)	(16,1)	(-2,1)	(388,4)	(1,0)	(1,0)	
L1D -389>	(0,3)	(88,1)	(1,2)	(390,1)	(14,1)	(306,2)	(389,5)	(24,1)	(396,1)	(2,1)	(437,1)	(395,1)	(388,1)	(385,1)	(387,4)	(1,0)	
L1D -388>	(0,4)	(2,2)	(388,4)	(376,1)	(-44,1)	(374,1)	(3,1)	(362,1)	(1,1)	(184,1)	(120,1)	(-42,1)	(386,4)	(136,1)	(1,0)	(1,0)	
L1D -387>	(114,22)	(0,6)	(1,2)	(2,4)	(406,1)	(248,1)	(5,1)	(8,1)	(388,1)	(387,3)	(-16,16)	(132,1)	(318,1)	(276,1)	(-30,1)	(385,4)	
L1D -386>	(386,109)	(-31,5)	(0,5)	(6,1)	(383,1)	(384,4)	(1,0)	(1,0)	(1,0)	(1,0)	(1,0)	(1,0)	(1,0)	(1,0)	(1,0)	(1,0)	
L1D -385>	(1,3)	(385,7)	(386,3)	(0,10)	(384,1)	(-2,1)	(73,1)	(2,1)	(390,1)	(108,1)	(8,1)	(383,3)	(1,0)	(1,0)	(1,0)	(1,0)	
L1D -384>	(1,8)	(372,5)	(0,5)	(384,3)	(351,1)	(192,1)	(5,1)	(356,1)	(385,2)	(258,1)	(382,4)	(-42,1)	(1,0)	(1,0)	(1,0)	(1,0)	
L1D -383>	(384,3)	(1,3)	(0,2)	(-1,2)	(2,2)	(128,1)	(397,1)	(5,1)	(383,2)	(414,1)	(110,1)	(381,4)	(1,0)	(1,0)	(1,0)	(1,0)	
L1D -382>	(382,3)	(2,1)	(4,1)	(-28,2)	(379,1)	(383,2)	(73,1)	(1,2)	(90,1)	(-6,1)	(44,2)	(0,1)	(26,2)	(414,1)	(380,4)	(1,0)	
L1D -381>	(114,104)	(152,7)	(0,6)	(379,4)	(1,5)	(2,5)	(381,6)	(15,1)	(58,1)	(42,1)	(-8,1)	(-42,1)	(366,1)	(-7,1)	(5,1)	(82,1)	
L1D -380>	(381,3)	(28,2)	(378,4)	(4,1)	(1,8)	(6,2)	(24,1)	(5,2)	(0,3)	(3,1)	(-24,1)	(26,4)	(9,1)	(-4,1)	(402,1)	(472,1)	
L1D -379>	(378,1)	(379,3)	(0,5)	(5,1)	(410,1)	(2,1)	(-8,10)	(-16,5)	(3,1)	(1,1)	(-7,1)	(30,1)	(-1,1)	(8,1)	(377,4)	(1,0)	
L1D -378>	(378,4)	(-1,1)	(2,6)	(126,1)	(79,2)	(379,1)	(1,6)	(412,1)	(0,9)	(-60,1)	(170,1)	(4,3)	(5,6)	(18,4)	(400,1)	(376,4)	
L1D -377>	(1,9)	(375,4)	(126,3)	(376,1)	(412,1)	(4,5)	(0,2)	(386,12)	(382,4)	(9,6)	(-2,1)	(5,1)	(53,1)	(381,2)	(110,1)	(2,1)	
L1D -376>	(5,1)	(1,3)	(4,2)	(74,1)	(3,5)	(102,1)	(-1,1)	(376,1)	(44,2)	(16,13)	(8,1)	(377,1)	(-6,1)	(374,4)	(1,0)	(1,0)	
L1D -375>	(373,4)	(0,3)	(374,2)	(1,1)	(-4,1)	(402,1)	(-1,2)	(-7,1)	(124,3)	(-2,2)	(34,1)	(18,14)	(2,2)	(5,2)	(368,1)	(6,1)	
L1D -374>	(372,4)	(85,1)	(374,5)	(0,7)	(1,1)	(32,1)	(-116,1)	(6,2)	(5,3)	(4,1)	(264,1)	(107,2)	(76,1)	(352,1)	(382,1)	(18,1)	
L1D -373>	(2,3)	(0,3)	(74,3)	(374,2)	(371,4)	(58,1)	(5,11)	(-7,1)	(454,1)	(373,2)	(4,6)	(382,5)	(16,2)	(3,1)	(125,1)	(8,1)	
L1D -372>	(2,2)	(372,3)	(1,5)	(6,3)	(370,4)	(373,2)	(5,6)	(0,4)	(53,1)	(126,1)	(142,1)	(44,4)	(4,6)	(26,16)	(18,2)	(9,6)	
L1D -371>	(1,6)	(2,2)	(72,10)	(-2,1)	(372,1)	(4,2)	(371,1)	(56,1)	(0,2)	(44,3)	(8,1)	(276,1)	(5,1)	(124,1)	(369,4)	(272,1)	
L1D -370>	(3,3)	(-137,2)	(2,4)	(370,2)	(0,4)	(368,4)	(4,1)	(180,1)	(344,2)	(1,9)	(371,2)	(260,1)	(44,4)	(-1,2)	(377,1)	(374,2)	
L1D -369>	(1,8)	(4,7)	(-7,2)	(367,4)	(5,7)	(3,2)	(28,1)	(70,3)	(-137,1)	(369,4)	(246,1)	(46,2)	(45,4)	(370,2)	(224,1)	(2,1)	
L1D -368>	(0,40)	(369,7)	(2,9)	(5,10)	(-5,16)	(-10,13)	(366,4)	(1,93)	(44,117)	(45,78)	(-42,1)	(-26,3)	(-27,5)	(49,16)	(4,21)	(48,11)	
L1D -367>	(1,27)	(-9,8)	(367,2)	(-10,2)	(2,5)	(365,4)	(414,1)	(125,1)	(412,1)	(368,2)	(69,1)	(44,99)	(0,41)	(-1,5)	(-5,3)	(3,5)	
L1D -366>	(331,2)	(9,58)	(0,10)	(-72,1)	(88,1)	(366,4)	(1,5)	(18,1)	(17,1)	(365,1)	(3,3)	(44,4)	(5,1)	(48,1)	(364,4)	(1,0)	
L1D -365>	(-1,1)	(60,35)	(5,5)	(1,4)	(0,7)	(4,1)	(270,1)	(2,1)	(66,1)	(108,1)	(365,3)	(8,7)	(40,1)	(106,1)	(80,1)	(363,4)	
L1D -364>	(362,1)	(1,1)	(4,0)	(0,1)	(5,26)	(49,0)	(9,3)	(-4,0)	(3,0)	(364,0)	(44,73)	(2,0)	(194,0)	(-35,0)	(-31,0)	(-26,0)	
L1D -363>	(1,8)	(0,8)	(9,48)	(361,4)	(72,1)	(363,4)	(88,2)	(352,1)	(48,17)	(-2,1)	(327,1)	(44,126)	(-36,4)	(4,19)	(-31,2)	(5,3)	
L1D -362>	(0,7)	(9,16)	(1,9)	(360,4)	(52,1)	(120,1)	(-1,2)	(-20,1)	(68,1)	(362,4)	(331,5)	(363,2)	(208,1)	(5,3)	(3,1)	(78,2)	
L1D -361>	(331,7)	(1,8)	(0,40)	(359,4)	(362,2)	(88,17)	(-1,5)	(-87,5)	(2,2)	(330,3)	(24,2)	(361,1)	(62,2)	(3,1)	(4,1)	(-16,2)	
L1D -360>	(358,4)	(0,13)	(2,2)	(121,2)	(360,3)	(88,1)	(1,7)	(146,2)	(84,1)	(-2,1)	(414,1)	(5,5)	(4,4)	(8,22)	(9,1)	(36,1)	
L1D -359>	(60,76)	(0,2)	(357,4)	(5,4)	(1,5)	(359,2)	(3,0)	(-8,0)	(9,10)	(36,0)	(13,1)	(1,0)	(1,0)	(1,0)	(1,0)	(1,0)	
L1D -358>	(356,4)	(97,1)	(60,1)	(-1,1)	(4,7)	(2,3)	(359,2)	(1,5)	(0,8)	(352,1)	(355,1)	(272,1)	(-137,1)	(91,1)	(9,2)	(-40,1)	
L1D -357>	(355,4)	(1,8)	(357,2)	(358,2)	(0,5)	(246,1)	(5,4)	(3,2)	(-2,2)	(88,1)	(6,2)	(2,1)	(414,1)	(8,4)	(-8,1)	(18,2)	
L1D -356>	(0,14)	(1,14)	(2,2)	(356,6)	(354,4)	(88,5)	(-6,1)	(28,1)	(357,3)	(-2,1)	(-39,55)	(5,67)	(87,1)	(9,1)	(41,39)	(-44,1)	
L1D -355>	(2,2)	(1,28)	(0,25)	(3,2)	(56,3)	(88,12)	(353,4)	(355,3)	(76,1)	(6,2)	(4,18)	(5,13)	(9,2)	(31,2)	(-1,1)	(10,1)	
L1D -354>	(1,116)	(0,7)	(88,9)	(2,1)	(-128,0)	(-30,0)	(352,2)	(-42,0)	(-16,0)	(4,1)	(1,0)	(1,0)	(1,0)	(1,0)	(1,0)	(1,0)	
L1D -353>	(0,53)	(1,86)	(88,66)	(351,0)	(354,0)	(-1,4)	(6,0)	(1,0)	(1,0)	(1,0)	(1,0)	(1,0)	(1,0)	(1,0)	(1,0)	(1,0)	
L1D -352>	(0,118)	(350,0)	(-1,1)	(88,54)	(18,0)	(26,0)	(1,0)	(2,0)	(1,0)	(1,0)	(1,0)	(1,0)	(1,0)	(1,0)	(1,0)	(1,0)	
L1D -351>	(0,60)	(1,29)	(349,4)	(88,122)	(3,1)	(-1,10)	(351,0)	(77,0)	(5,0)	(8,0)	(-44,0)	(87,2)	(1,0)	(1,0)	(1,0)	(1,0)	
L1D -350>	(322,93)	(414,1)	(350,0)	(16,0)	(1,0)	(1,0)	(1,0)	(1,0)	(1,0)	(1,0)	(1,0)	(1,0)	(1,0)	(1,0)	(1,0)	(1,0)	
L1D -349>	(0,2)	(1,6)	(347,4)	(262,1)	(64,3)	(6,1)	(-2,1)	(376,1)	(349,3)	(336,1)	(56,1)	(-70,1)	(8,6)	(3,1)	(350,1)	(348,1)	
L1D -348>	(1,4)	(0,7)	(4,2)	(346,4)	(349,2)	(126,1)	(-116,1)	(348,2)	(351,2)	(184,1)	(-1,1)	(134,1)	(320,61)	(-82,1)	(352,1)	(298,1)	
L1D -347>	(3,4)	(319,46)	(18,1)	(1,4)	(109,2)	(64,3)	(347,4)	(348,1)	(0,3)	(16,1)	(5,2)	(-2,1)	(345,4)	(1,0)	(1,0)	(1,0)	
L1D -346>	(0,7)	(341,24)	(344,2)	(4,85)	(346,0)	(-137,0)	(22,0)	(-16,0)	(8,0)	(26,0)	(1,0)	(1,0)	(1,0)	(1,0)	(1,0)	(1,0)	
L1D -345>	(1,2)	(0,4)	(-20,1)	(346,1)	(88,1)	(242,1)	(24,1)	(70,1)	(345,2)	(2,1)	(-60,1)	(6,2)	(343,4)	(4,1)	(380,1)	(1,0)	
L1D -344>	(-1,2)	(0,6)	(130,1)	(88,1)	(288,1)	(208,1)	(345,2)	(-82,1)	(1,2)	(5,1)	(390,1)	(344,1)	(342,4)	(1,0)	(1,0)	(1,0)	
L1D -343>	(341,0)	(338,21)	(345,0)	(-3,7)	(162,76)	(-1,0)	(0,0)	(1,0)	(1,0)	(1,0)	(1,0)	(1,0)	(1,0)	(1,0)	(1,0)	(1,0)	
L1D -342>	(0,4)	(1,1)	(-4,111)	(4,2)	(339,1)	(342,1)	(340,4)	(337,7)	(125,0)	(83,0)	(5,0)	(346,0)	(1,0)	(1,0)	(1,0)	(1,0)	
L1D -341>	(0,23)	(5,4)	(341,3)	(4,24)	(-1,0)	(339,0)	(346,5)	(358,104)	(245,0)	(342,0)	(88,0)	(6,0)	(1,0)	(1,0)	(1,0)	(1,0)	
L1D -340>	(338,2)	(345,2)	(3,65)	(4,0)	(340,3)	(-18,0)	(324,0)	(0,2)	(6,0)	(326,0)	(1,1)	(1,0)	(1,0)	(1,0)	(1,0)	(1,0)	
L1D -339>	(286,25)	(2,2)	(3,1)	(5,1)	(120,1)	(336,1)	(276,83)	(337,4)	(42,1)	(1,1)	(-20,1)	(1,0)	(1,0)	(1,0)	(1,0)	(1,0)	
L1D -338>	(117,2)	(1,32)	(343,33)	(-3,56)	(244,2)	(0,7)	(114,4)	(336,3)	(8,1)	(339,5)	(168,1)	(338,1)	(41,2)	(5,2)	(410,1)	(182,1)	
L1D -337>	(1,3)	(335,4)	(167,1)	(114,108)	(-4,51)	(117,67)	(-5,1)	(-1,1)	(6,2)	(40,1)	(104,3)	(13,2)	(346,1)	(9,1)	(341,0)	(24,0)	
L1D -336>	(196,8)	(0,8)	(9,21)	(16,5)	(-1,2)	(4,2)	(345,2)	(326,27)	(164,9)	(1,3)	(245,12)	(366,9)	(83,10)	(334,4)	(216,1)	(337,3)	
L1D -335>	(1,3)	(5,4)	(3,4)	(6,2)	(333,4)	(335,1)	(2,1)	(-1,3)	(4,1)	(-16,57)	(376,1)	(327,1)	(-44,1)	(0,1)	(132,1)	(258,1)	
L1D -334>	(334,3)	(28,1)	(1,4)	(4,4)	(335,2)	(0,6)	(-44,1)	(-5,1)	(-1,1)	(-18,1)	(332,4)	(414,1)	(246,1)	(17,1)	(1,0)	(1,0)	
L1D -333>	(9,25)	(4,18)	(1,4)	(41,3)	(331,4)	(5,28)	(6,5)	(91,2)	(-9,1)	(3,4)	(186,1)	(0,13)	(414,1)	(114,1)	(334,4)	(40,4)	
L1D -332>	(286,19)	(1,10)	(330,30)	(2,1)	(335,1)	(4,11)	(476,1)	(332,5)	(0,5)	(236,1)	(7,3)	(122,2)	(341,2)	(9,1)	(365,1)	(1,0)	
L1D -331>	(332,3)	(331,5)	(330,17)	(41,4)	(326,90)	(367,13)	(366,31)	(245,14)	(365,1)	(196,80)	(164,33)	(83,52)	(155,22)	(358,9)	(3,2)	(124,5)	
L1D -330>	(286,9)	(333,1)	(0,3)	(155,115)	(114,3)	(74,6)	(164,29)	(2,1)	(276,43)	(328,4)	(-42,2)	(1,1)	(41,1)	(4,2)	(83,1)	(367,2)	
L1D -329>	(5,1)	(4,6)	(40,13)	(41,1)	(9,125)	(6,0)	(-4,0)	(3,0)	(1,0)	(54,0)	(122,0)	(1,0)	(1,0)	(1,0)	(1,0)	(1,0)	
L1D -328>	(22,72)	(9,6)	(15,87)	(-9,1)	(326,1)	(114,0)	(4,7)	(-102,0)	(1,0)	(328,0)	(5,0)	(0,2)	(41,0)	(329,0)	(2,0)	(18,0)	
L1D -327>	(-1,1)	(5,7)	(325,1)	(327,38)	(7,66)	(156,0)	(0,7)	(304,0)	(368,17)	(1,9)	(40,1)	(4,1)	(-10,1)	(26,1)	(3,2)	(-16,2)	
L1D -326>	(4,14)	(1,15)	(324,4)	(0,21)	(358,2)	(329,1)	(75,1)	(9,10)	(112,1)	(322,1)	(18,25)	(2,12)	(40,2)	(41,1)	(3,1)	(-100,1)	
L1D -325>	(41,66)	(5,35)	(40,2)	(9,7)	(2,0)	(325,0)	(1,0)	(4,0)	(1,0)	(1,0)	(1,0)	(1,0)	(1,0)	(1,0)	(1,0)	(1,0)	
L1D -324>	(5,0)	(9,81)	(6,0)	(4,34)	(40,10)	(-44,0)	(41,0)	(0,0)	(-9,2)	(-4,0)	(-5,0)	(335,0)	(16,0)	(1,0)	(-1,0)	(-50,0)	
L1D -323>	(9,33)	(321,0)	(146,0)	(4,0)	(-10,1)	(40,0)	(-44,0)	(18,0)	(44,40)	(5,102)	(0,0)	(3,1)	(49,4)	(1,0)	(-26,0)	(81,0)	
L1D -322>	(5,3)	(323,2)	(41,1)	(-1,0)	(350,0)	(0,0)	(3,0)	(98,0)	(322,0)	(419,0)	(325,0)	(4,0)	(2,0)	(-53,86)	(320,0)	(1,0)	
L1D -321>	(16,7)	(5,68)	(6,2)	(41,112)	(40,0)	(1,4)	(316,0)	(0,0)	(208,0)	(18,0)	(319,2)	(348,9)	(321,0)	(24,0)	(3,0)	(2,0)	
L1D -320>	(40,16)	(16,27)	(1,18)	(348,45)	(5,7)	(20,0)	(-12,0)	(-44,0)	(4,0)	(41,67)	(318,0)	(320,0)	(-4,0)	(347,0)	(26,0)	(-9,0)	
L1D -319>	(347,121)	(56,1)	(0,0)	(40,0)	(9,39)	(-44,0)	(4,0)	(3,1)	(-9,0)	(24,0)	(81,0)	(1,0)	(1,0)	(1,0)	(1,0)	(1,0)	
L1D -318>	(7,0)	(9,85)	(359,0)	(5,0)	(4,0)	(44,0)	(1,0)	(1,0)	(1,0)	(1,0)	(1,0)	(1,0)	(1,0)	(1,0)	(1,0)	(1,0)	
L1D -317>	(0,12)	(6,6)	(1,4)	(4,3)	(368,1)	(-72,1)	(146,2)	(317,2)	(414,1)	(5,1)	(-13,1)	(358,1)	(2,1)	(315,4)	(1,0)	(1,0)	
L1D -316>	(1,5)	(314,4)	(0,16)	(4,2)	(41,94)	(348,1)	(291,2)	(321,1)	(6,2)	(340,1)	(319,1)	(-2,1)	(5,7)	(-11,1)	(-10,2)	(-8,2)	
L1D -315>	(-5,11)	(1,6)	(-1,4)	(0,27)	(3,5)	(-9,3)	(4,11)	(-13,3)	(313,4)	(6,3)	(394,1)	(-20,1)	(222,1)	(40,49)	(5,5)	(-4,14)	
L1D -314>	(-1,1)	(0,8)	(53,1)	(100,1)	(4,3)	(88,2)	(1,3)	(317,4)	(-112,1)	(54,1)	(6,1)	(312,3)	(414,1)	(1,0)	(1,0)	(1,0)	
L1D -313>	(313,64)	(26,3)	(0,9)	(1,2)	(311,4)	(200,1)	(4,2)	(56,2)	(24,4)	(6,3)	(310,1)	(-2,1)	(-12,1)	(-4,1)	(-36,1)	(20,1)	
L1D -312>	(310,4)	(4,4)	(0,10)	(-42,1)	(414,1)	(315,2)	(98,1)	(313,2)	(280,1)	(188,1)	(114,1)	(1,1)	(-114,1)	(92,1)	(-18,1)	(-2,1)	
L1D -311>	(322,1)	(5,1)	(0,7)	(1,1)	(24,2)	(6,2)	(311,3)	(132,1)	(4,2)	(312,1)	(326,1)	(44,1)	(309,4)	(56,1)	(1,0)	(1,0)	
L1D -310>	(-26,1)	(2,1)	(0,14)	(1,4)	(18,1)	(6,1)	(414,1)	(407,2)	(4,4)	(120,1)	(-2,1)	(382,1)	(9,14)	(313,1)	(146,1)	(308,4)	
L1D -309>	(6,13)	(5,2)	(1,3)	(0,17)	(28,1)	(206,1)	(309,2)	(-118,1)	(90,1)	(-2,1)	(125,1)	(4,1)	(56,2)	(307,4)	(1,0)	(1,0)	
L1D -308>	(1,3)	(0,19)	(2,2)	(146,2)	(313,1)	(20,1)	(8,27)	(-8,4)	(-9,1)	(4,1)	(6,3)	(306,4)	(1,0)	(1,0)	(1,0)	(1,0)	
L1D -307>	(0,7)	(1,2)	(4,3)	(6,6)	(2,1)	(3,1)	(-44,1)	(305,5)	(311,1)	(26,1)	(1,0)	(1,0)	(1,0)	(1,0)	(1,0)	(1,0)	
L1D -306>	(0,68)	(309,0)	(306,13)	(2,0)	(1,0)	(1,0)	(1,0)	(1,0)	(1,0)	(1,0)	(1,0)	(1,0)	(1,0)	(1,0)	(1,0)	(1,0)	
L1D -305>	(1,6)	(303,4)	(6,8)	(0,5)	(146,1)	(321,12)	(42,1)	(305,2)	(24,3)	(-53,3)	(8,5)	(-44,1)	(43,1)	(392,1)	(26,1)	(35,1)	
L1D -304>	(0,7)	(1,4)	(20,3)	(-4,1)	(3,3)	(319,1)	(4,2)	(307,2)	(452,1)	(12,1)	(5,1)	(146,1)	(6,1)	(302,4)	(24,1)	(19,1)	
L1D -303>	(-1,3)	(3,3)	(0,5)	(303,1)	(24,1)	(6,2)	(2,2)	(-28,1)	(60,1)	(4,4)	(1,1)	(5,1)	(26,1)	(-2,3)	(301,4)	(-20,2)	
L1D -302>	(300,5)	(305,1)	(2,3)	(11,1)	(0,21)	(34,1)	(19,3)	(292,1)	(4,3)	(1,5)	(18,1)	(20,1)	(302,92)	(26,6)	(-80,1)	(287,1)	
L1D -301>	(5,3)	(6,10)	(299,4)	(10,1)	(26,2)	(0,16)	(32,1)	(78,1)	(-124,1)	(301,1)	(1,34)	(9,2)	(8,3)	(3,6)	(19,1)	(2,8)	
L1D -300>	(1,7)	(2,21)	(-2,1)	(305,6)	(0,9)	(39,1)	(5,2)	(301,1)	(6,4)	(112,1)	(82,1)	(-1,1)	(18,41)	(298,3)	(1,0)	(1,0)	
L1D -299>	(297,4)	(321,71)	(14,5)	(88,1)	(2,9)	(28,1)	(4,2)	(0,8)	(488,1)	(26,1)	(6,2)	(-20,2)	(299,1)	(1,85)	(-1,7)	(50,1)	
L1D -298>	(1,9)	(-16,4)	(16,22)	(-1,2)	(-3,2)	(0,20)	(301,2)	(300,1)	(296,5)	(6,1)	(3,1)	(290,1)	(-9,1)	(376,1)	(26,1)	(274,1)	
L1D -297>	(6,13)	(1,2)	(26,8)	(0,13)	(24,11)	(295,4)	(299,2)	(10,1)	(4,1)	(60,1)	(5,2)	(2,5)	(-4,1)	(301,1)	(12,1)	(-20,1)	
L1D -296>	(0,21)	(9,7)	(34,2)	(336,2)	(294,5)	(301,1)	(5,1)	(19,5)	(-9,3)	(299,1)	(4,3)	(1,2)	(338,1)	(20,3)	(-4,1)	(305,10)	
L1D -295>	(0,12)	(14,3)	(6,12)	(1,7)	(-20,4)	(56,1)	(26,2)	(19,3)	(299,1)	(16,1)	(125,1)	(362,1)	(9,1)	(293,3)	(297,1)	(1,0)	
L1D -294>	(334,7)	(0,7)	(291,38)	(4,3)	(1,5)	(2,10)	(6,106)	(26,10)	(20,4)	(292,4)	(18,6)	(-42,1)	(14,5)	(19,3)	(17,98)	(-8,32)	
L1D -293>	(9,11)	(1,2)	(6,6)	(291,4)	(295,1)	(4,1)	(17,1)	(315,1)	(0,4)	(19,1)	(5,2)	(293,3)	(24,2)	(254,1)	(12,64)	(-9,35)	
L1D -292>	(-1,24)	(0,4)	(8,2)	(3,2)	(354,1)	(295,1)	(6,1)	(-38,0)	(288,0)	(19,0)	(290,4)	(318,0)	(4,2)	(-13,96)	(5,1)	(1,1)	
L1D -291>	(294,9)	(8,1)	(24,1)	(293,1)	(4,2)	(-20,3)	(0,4)	(288,1)	(289,4)	(291,2)	(-11,105)	(6,1)	(1,1)	(1,0)	(1,0)	(1,0)	
L1D -290>	(26,7)	(0,13)	(-9,5)	(20,3)	(6,1)	(330,113)	(331,5)	(288,5)	(414,2)	(293,3)	(1,6)	(291,2)	(62,1)	(2,7)	(286,1)	(19,3)	
L1D -289>	(-6,1)	(289,1)	(41,111)	(9,31)	(5,0)	(26,0)	(4,0)	(0,1)	(24,0)	(6,1)	(40,4)	(1,0)	(1,0)	(1,0)	(1,0)	(1,0)	
L1D -288>	(4,10)	(0,13)	(2,2)	(26,1)	(289,2)	(328,1)	(40,65)	(5,2)	(291,2)	(20,2)	(8,20)	(41,2)	(3,1)	(9,10)	(286,2)	(1,0)	
L1D -287>	(46,0)	(250,0)	(285,1)	(0,6)	(2,1)	(8,94)	(6,0)	(3,2)	(40,0)	(16,0)	(328,0)	(44,0)	(327,0)	(-5,0)	(1,0)	(41,1)	
L1D -286>	(44,2)	(-1,5)	(5,5)	(40,2)	(284,5)	(0,14)	(4,3)	(1,9)	(-2,4)	(9,29)	(20,7)	(-4,1)	(196,1)	(80,1)	(292,1)	(2,3)	
L1D -285>	(4,27)	(41,7)	(6,16)	(40,2)	(24,10)	(283,4)	(285,1)	(9,9)	(279,1)	(-20,7)	(287,1)	(3,3)	(-5,2)	(152,1)	(26,2)	(0,12)	
L1D -284>	(-46,0)	(40,127)	(9,97)	(4,24)	(41,0)	(324,0)	(-4,0)	(0,0)	(339,0)	(1,0)	(-1,0)	(5,2)	(284,0)	(-40,0)	(-84,0)	(-85,0)	
L1D -283>	(4,66)	(117,1)	(19,0)	(9,2)	(324,0)	(279,0)	(81,0)	(-5,0)	(0,0)	(41,0)	(-16,0)	(1,0)	(-1,0)	(-41,0)	(44,0)	(-3,0)	
L1D -282>	(-42,1)	(262,1)	(283,0)	(41,0)	(8,0)	(0,1)	(40,0)	(44,65)	(20,0)	(84,1)	(-80,0)	(291,0)	(280,0)	(348,0)	(271,0)	(-142,0)	
L1D -281>	(42,62)	(0,9)	(290,9)	(41,15)	(-1,2)	(1,2)	(24,5)	(6,16)	(281,3)	(4,23)	(-20,1)	(2,1)	(279,6)	(26,3)	(276,1)	(38,1)	
L1D -280>	(20,0)	(41,75)	(254,0)	(40,2)	(9,0)	(42,0)	(-44,0)	(4,0)	(284,0)	(283,0)	(-1,0)	(1,1)	(1,0)	(1,0)	(1,0)	(1,0)	
L1D -279>	(277,4)	(-44,5)	(8,45)	(-4,6)	(40,57)	(113,6)	(-20,5)	(0,106)	(4,85)	(16,3)	(24,8)	(26,5)	(19,4)	(-9,66)	(276,2)	(281,3)	
L1D -278>	(44,34)	(19,11)	(276,4)	(301,1)	(0,18)	(242,2)	(283,3)	(404,1)	(-2,1)	(20,2)	(-1,1)	(278,81)	(1,3)	(318,1)	(5,1)	(125,1)	
L1D -277>	(0,84)	(-20,0)	(277,9)	(273,42)	(80,0)	(13,0)	(6,1)	(24,0)	(1,1)	(1,0)	(1,0)	(1,0)	(1,0)	(1,0)	(1,0)	(1,0)	
L1D -276>	(14,2)	(19,20)	(28,4)	(0,13)	(2,11)	(26,6)	(4,1)	(1,5)	(6,3)	(281,5)	(-1,2)	(274,6)	(8,4)	(20,17)	(247,2)	(276,5)	
L1D -275>	(36,27)	(8,5)	(276,5)	(25,3)	(6,5)	(19,2)	(1,19)	(-16,15)	(275,12)	(5,10)	(41,51)	(-4,13)	(26,4)	(0,20)	(273,4)	(40,1)	
L1D -274>	(279,2)	(8,14)	(19,3)	(1,21)	(4,5)	(2,13)	(275,2)	(0,21)	(-5,12)	(-49,8)	(6,3)	(-42,1)	(277,6)	(272,5)	(14,1)	(20,3)	
L1D -273>	(277,113)	(-4,0)	(0,1)	(1,26)	(412,5)	(273,9)	(19,0)	(24,0)	(419,1)	(6,3)	(420,4)	(-1,0)	(271,2)	(263,0)	(-20,1)	(411,0)	
L1D -272>	(275,5)	(270,11)	(1,15)	(16,16)	(0,11)	(414,1)	(88,2)	(295,1)	(2,3)	(247,3)	(-122,1)	(-98,1)	(268,1)	(20,4)	(24,1)	(6,1)	
L1D -271>	(2,0)	(6,1)	(4,0)	(41,67)	(273,0)	(0,0)	(-20,0)	(26,0)	(270,0)	(50,0)	(44,0)	(3,0)	(24,0)	(1,0)	(1,0)	(1,0)	
L1D -270>	(0,3)	(1,7)	(273,0)	(281,0)	(-9,85)	(20,4)	(-20,0)	(-134,0)	(28,0)	(19,2)	(-1,1)	(254,0)	(268,2)	(78,0)	(4,1)	(40,5)	
L1D -269>	(3,78)	(26,5)	(16,5)	(269,1)	(267,2)	(1,3)	(6,2)	(268,3)	(13,7)	(0,5)	(24,1)	(271,0)	(29,0)	(266,1)	(4,1)	(19,1)	
L1D -268>	(26,12)	(266,6)	(19,41)	(5,6)	(2,22)	(20,24)	(0,24)	(18,2)	(88,1)	(273,4)	(1,11)	(98,1)	(68,1)	(284,1)	(269,2)	(382,1)	
L1D -267>	(265,4)	(420,78)	(2,7)	(412,69)	(419,5)	(1,13)	(19,1)	(411,9)	(263,23)	(88,12)	(0,18)	(68,1)	(24,8)	(29,2)	(271,2)	(-20,7)	
L1D -266>	(0,7)	(1,98)	(268,1)	(88,9)	(234,1)	(19,6)	(2,2)	(20,1)	(18,0)	(24,0)	(4,2)	(-20,0)	(264,0)	(269,1)	(277,0)	(228,0)	
L1D -265>	(-1,0)	(0,83)	(1,16)	(2,0)	(6,0)	(265,0)	(267,0)	(88,78)	(24,0)	(1,0)	(1,0)	(1,0)	(1,0)	(1,0)	(1,0)	(1,0)	
L1D -264>	(0,97)	(269,0)	(88,29)	(-1,0)	(12,0)	(262,0)	(26,0)	(1,1)	(1,0)	(1,0)	(1,0)	(1,0)	(1,0)	(1,0)	(1,0)	(1,0)	
L1D -263>	(277,1)	(1,12)	(24,11)	(263,4)	(86,2)	(0,90)	(-1,3)	(88,127)	(87,3)	(-20,1)	(2,1)	(261,4)	(274,1)	(3,1)	(26,2)	(38,0)	
L1D -262>	(4,4)	(0,13)	(1,5)	(260,5)	(2,5)	(19,4)	(254,1)	(20,17)	(263,1)	(267,8)	(265,2)	(-1,2)	(14,2)	(170,1)	(262,1)	(264,1)	
L1D -261>	(19,8)	(26,44)	(381,1)	(36,3)	(-9,97)	(6,8)	(260,3)	(0,12)	(10,6)	(-20,5)	(24,14)	(40,21)	(259,4)	(261,8)	(263,6)	(1,4)	
L1D -260>	(2,8)	(1,7)	(258,4)	(378,1)	(0,11)	(20,18)	(19,2)	(265,5)	(6,3)	(273,1)	(272,1)	(248,2)	(60,1)	(24,1)	(-20,2)	(260,2)	
L1D -259>	(1,7)	(257,4)	(259,2)	(258,2)	(-20,1)	(3,4)	(0,12)	(24,4)	(220,3)	(273,1)	(22,1)	(268,1)	(6,1)	(396,1)	(44,1)	(41,1)	
L1D -258>	(9,4)	(261,1)	(4,1)	(62,92)	(1,19)	(394,0)	(2,1)	(0,4)	(256,1)	(20,1)	(186,0)	(1,0)	(1,0)	(1,0)	(1,0)	(1,0)	
L1D -257>	(0,60)	(97,1)	(60,114)	(98,101)	(22,1)	(99,4)	(-1,0)	(24,1)	(61,10)	(-6,0)	(6,0)	(257,2)	(-20,0)	(247,0)	(19,0)	(1,0)	
L1D -256>	(-26,2)	(1,114)	(254,4)	(0,7)	(239,8)	(255,10)	(262,1)	(19,3)	(265,1)	(251,71)	(20,20)	(9,7)	(8,35)	(5,1)	(-6,1)	(-12,1)	
L1D -255>	(0,65)	(84,77)	(250,10)	(234,0)	(26,1)	(255,0)	(24,0)	(253,1)	(19,0)	(20,0)	(257,0)	(264,0)	(1,0)	(260,0)	(1,0)	(1,0)	
L1D -254>	(-16,3)	(-20,6)	(0,20)	(2,30)	(1,3)	(14,3)	(252,4)	(20,39)	(19,9)	(8,1)	(-12,2)	(278,2)	(6,2)	(257,3)	(247,1)	(255,2)	
L1D -253>	(294,5)	(1,6)	(2,3)	(253,14)	(6,8)	(0,15)	(251,4)	(-20,13)	(3,2)	(24,9)	(19,1)	(29,1)	(255,1)	(8,32)	(252,1)	(248,1)	
L1D -252>	(-20,3)	(9,15)	(250,4)	(231,1)	(1,8)	(252,1)	(20,4)	(19,10)	(5,5)	(6,1)	(257,2)	(-12,5)	(0,17)	(-9,93)	(4,5)	(240,1)	
L1D -251>	(1,81)	(7,1)	(3,0)	(290,0)	(4,0)	(19,0)	(240,0)	(253,1)	(0,0)	(270,0)	(1,0)	(1,0)	(1,0)	(1,0)	(1,0)	(1,0)	
L1D -250>	(1,2)	(248,2)	(253,1)	(7,0)	(-18,0)	(272,0)	(0,4)	(84,71)	(250,66)	(-20,1)	(2,5)	(4,1)	(-121,0)	(19,1)	(290,79)	(277,0)	
L1D -249>	(289,30)	(6,4)	(3,9)	(8,4)	(-1,2)	(24,23)	(1,38)	(0,18)	(249,9)	(19,5)	(26,5)	(247,4)	(-36,8)	(251,2)	(-26,1)	(-48,3)	
L1D -248>	(0,1)	(4,1)	(3,0)	(41,11)	(297,0)	(-18,0)	(1,0)	(26,0)	(2,0)	(6,0)	(288,0)	(5,0)	(249,0)	(40,90)	(19,0)	(20,1)	
L1D -247>	(245,3)	(247,11)	(26,21)	(1,120)	(0,16)	(3,2)	(287,2)	(248,1)	(4,6)	(5,2)	(38,1)	(288,1)	(40,2)	(8,14)	(9,5)	(-1,2)	
L1D -246>	(16,18)	(19,29)	(-1,4)	(-16,5)	(13,1)	(5,2)	(2,3)	(0,11)	(287,4)	(-20,2)	(1,9)	(3,1)	(8,106)	(7,118)	(20,5)	(244,4)	
L1D -245>	(13,89)	(247,1)	(-20,2)	(24,4)	(250,18)	(6,1)	(-6,4)	(245,1)	(0,2)	(5,2)	(4,2)	(243,1)	(1,1)	(2,0)	(8,6)	(-1,0)	
L1D -244>	(5,81)	(-20,1)	(2,0)	(289,0)	(20,0)	(0,0)	(9,5)	(19,0)	(1,1)	(4,5)	(-6,0)	(1,0)	(1,0)	(1,0)	(1,0)	(1,0)	
L1D -243>	(-4,4)	(245,1)	(4,98)	(5,94)	(117,1)	(3,1)	(19,0)	(-9,8)	(239,3)	(9,72)	(40,0)	(1,0)	(0,0)	(248,0)	(-1,0)	(279,15)	
L1D -242>	(20,0)	(19,0)	(4,0)	(-12,0)	(-26,0)	(7,0)	(26,0)	(-1,0)	(49,0)	(2,0)	(-7,0)	(-10,0)	(5,25)	(44,69)	(-6,0)	(1,0)	
L1D -241>	(5,64)	(26,26)	(241,25)	(24,13)	(2,2)	(40,73)	(0,5)	(1,6)	(9,2)	(-1,1)	(44,1)	(19,2)	(234,1)	(239,6)	(6,1)	(-6,1)	
L1D -240>	(241,2)	(5,108)	(-4,1)	(4,6)	(41,3)	(0,18)	(250,1)	(1,2)	(20,9)	(276,1)	(19,2)	(238,7)	(40,55)	(24,1)	(239,7)	(294,1)	
L1D -239>	(1,7)	(-120,1)	(239,1)	(5,0)	(241,0)	(40,79)	(2,0)	(0,30)	(-9,0)	(243,10)	(-3,1)	(234,0)	(-135,0)	(-4,2)	(29,0)	(41,20)	
L1D -238>	(-42,1)	(244,1)	(292,1)	(12,2)	(5,12)	(0,3)	(-10,9)	(2,1)	(-20,1)	(20,0)	(19,0)	(-44,76)	(40,20)	(-26,0)	(236,0)	(4,0)	
L1D -237>	(2,3)	(4,4)	(0,25)	(7,6)	(6,6)	(235,4)	(44,1)	(24,3)	(239,5)	(222,2)	(228,1)	(237,6)	(1,4)	(17,1)	(29,3)	(270,1)	
L1D -236>	(2,5)	(-26,2)	(272,2)	(-20,6)	(-18,3)	(234,4)	(-42,1)	(-1,1)	(241,4)	(4,2)	(237,4)	(88,1)	(19,8)	(274,1)	(0,9)	(270,1)	
L1D -235>	(2,8)	(233,4)	(5,88)	(1,8)	(24,5)	(235,11)	(41,11)	(19,2)	(0,14)	(20,2)	(-20,4)	(239,2)	(-26,1)	(228,1)	(140,1)	(237,1)	
L1D -234>	(195,3)	(1,6)	(232,4)	(0,25)	(237,3)	(4,27)	(2,8)	(40,3)	(5,8)	(272,1)	(-9,13)	(19,11)	(-5,9)	(-18,3)	(6,3)	(-4,12)	
L1D -233>	(17,68)	(227,3)	(3,2)	(233,17)	(26,6)	(231,4)	(24,14)	(1,6)	(239,1)	(200,1)	(-20,5)	(4,1)	(29,1)	(166,1)	(-140,1)	(0,12)	
L1D -232>	(2,5)	(-6,2)	(-12,6)	(0,15)	(9,33)	(20,13)	(1,4)	(230,4)	(234,3)	(-42,1)	(-20,7)	(231,1)	(268,2)	(238,1)	(233,15)	(19,7)	
L1D -231>	(1,2)	(0,21)	(-16,3)	(2,4)	(231,9)	(229,3)	(7,1)	(29,2)	(24,2)	(220,2)	(88,1)	(396,1)	(20,1)	(238,1)	(233,4)	(202,2)	
L1D -230>	(220,3)	(-20,7)	(4,24)	(0,18)	(1,9)	(8,110)	(-18,2)	(228,4)	(2,14)	(20,10)	(7,8)	(229,2)	(223,3)	(194,1)	(146,2)	(3,1)	
L1D -229>	(26,2)	(1,4)	(24,3)	(-9,54)	(0,28)	(2,2)	(6,1)	(227,1)	(231,4)	(4,4)	(-10,75)	(3,1)	(374,3)	(229,1)	(7,3)	(220,1)	
L1D -228>	(234,6)	(0,25)	(32,9)	(-20,8)	(226,4)	(-27,2)	(235,2)	(231,3)	(2,3)	(1,4)	(233,3)	(-12,1)	(19,1)	(230,4)	(146,1)	(223,8)	
L1D -227>	(1,9)	(227,20)	(188,13)	(8,8)	(6,2)	(225,4)	(26,3)	(0,19)	(-20,6)	(20,2)	(88,2)	(24,1)	(229,4)	(304,1)	(220,1)	(4,1)	
L1D -226>	(224,4)	(6,8)	(0,18)	(-3,87)	(219,1)	(2,4)	(187,6)	(360,1)	(267,1)	(-20,7)	(88,2)	(20,7)	(-138,1)	(229,1)	(12,1)	(7,1)	
L1D -225>	(26,6)	(37,12)	(225,58)	(0,13)	(24,30)	(1,11)	(19,5)	(-20,26)	(234,12)	(-24,1)	(223,4)	(41,14)	(222,2)	(221,2)	(5,10)	(227,2)	
L1D -224>	(225,4)	(26,15)	(20,17)	(222,4)	(0,20)	(4,4)	(19,29)	(224,10)	(-20,6)	(6,3)	(226,2)	(-4,7)	(-42,1)	(28,2)	(24,3)	(-9,2)	
L1D -223>	(223,20)	(225,6)	(1,50)	(2,10)	(0,15)	(-16,13)	(19,8)	(-20,13)	(221,4)	(20,1)	(216,1)	(188,1)	(-2,1)	(36,1)	(26,1)	(3,8)	
L1D -222>	(18,35)	(-16,2)	(7,2)	(0,8)	(2,26)	(-26,4)	(1,21)	(-18,3)	(26,2)	(20,15)	(220,7)	(-20,12)	(256,4)	(-62,1)	(262,1)	(-25,1)	
L1D -221>	(-1,3)	(2,20)	(221,12)	(222,1)	(29,1)	(6,5)	(219,4)	(1,102)	(247,1)	(24,1)	(223,3)	(220,1)	(0,5)	(5,4)	(248,1)	(-20,1)	
L1D -220>	(-20,10)	(213,2)	(26,3)	(-10,55)	(19,4)	(2,3)	(-26,10)	(218,4)	(1,11)	(0,18)	(16,45)	(28,1)	(5,4)	(261,2)	(221,2)	(4,1)	
L1D -219>	(217,4)	(3,11)	(219,64)	(0,23)	(7,2)	(2,6)	(1,4)	(-20,15)	(224,1)	(4,2)	(226,1)	(19,10)	(434,2)	(-28,1)	(6,7)	(-5,1)	
L1D -218>	(216,4)	(0,14)	(-42,1)	(2,27)	(7,1)	(117,2)	(1,13)	(19,4)	(249,28)	(-120,1)	(-30,1)	(302,1)	(-72,1)	(-20,4)	(4,5)	(6,3)	
L1D -217>	(26,11)	(215,4)	(0,11)	(221,1)	(24,3)	(3,1)	(212,2)	(1,5)	(2,1)	(19,10)	(210,1)	(224,6)	(219,2)	(29,4)	(-20,5)	(-42,2)	
L1D -216>	(9,4)	(4,5)	(216,6)	(14,4)	(2,6)	(8,16)	(0,25)	(20,97)	(26,12)	(1,5)	(252,1)	(217,2)	(-20,5)	(-42,3)	(92,2)	(214,5)	
L1D -215>	(3,3)	(1,8)	(0,33)	(215,6)	(2,21)	(-20,3)	(224,2)	(5,10)	(92,2)	(24,2)	(7,3)	(217,4)	(213,4)	(208,1)	(-39,1)	(316,4)	
L1D -214>	(0,24)	(3,7)	(212,4)	(-26,4)	(2,1)	(-6,2)	(-1,2)	(20,3)	(24,1)	(140,1)	(4,3)	(402,1)	(-42,1)	(1,4)	(254,1)	(6,1)	
L1D -213>	(0,35)	(211,6)	(213,11)	(1,3)	(92,2)	(9,1)	(214,2)	(258,1)	(-5,1)	(215,7)	(250,1)	(218,1)	(4,1)	(212,1)	(29,1)	(2,1)	
L1D -212>	(4,31)	(9,115)	(189,2)	(-20,11)	(256,2)	(0,31)	(-1,2)	(5,6)	(2,2)	(210,4)	(212,2)	(219,3)	(3,5)	(214,2)	(20,1)	(1,8)	
L1D -211>	(1,14)	(211,42)	(5,11)	(209,4)	(-20,7)	(6,6)	(-10,124)	(3,9)	(0,66)	(9,1)	(2,3)	(8,1)	(213,1)	(4,15)	(159,1)	(20,2)	
L1D -210>	(0,41)	(208,4)	(198,2)	(4,1)	(-11,1)	(182,1)	(1,12)	(3,2)	(159,1)	(19,1)	(286,3)	(502,1)	(480,1)	(250,3)	(213,1)	(-14,1)	
L1D -209>	(26,63)	(207,4)	(0,21)	(1,8)	(29,7)	(250,1)	(19,1)	(24,7)	(209,5)	(216,5)	(6,2)	(211,1)	(4,3)	(329,1)	(-182,1)	(224,1)	
L1D -208>	(40,46)	(41,78)	(186,1)	(9,96)	(206,0)	(19,0)	(26,0)	(-152,0)	(-20,0)	(0,2)	(2,0)	(209,0)	(1,0)	(4,0)	(5,34)	(215,0)	
L1D -207>	(40,56)	(9,71)	(-20,0)	(41,0)	(205,0)	(4,0)	(-5,0)	(5,0)	(247,0)	(0,2)	(209,0)	(1,0)	(2,0)	(6,1)	(207,2)	(24,0)	
L1D -206>	(0,112)	(212,0)	(3,2)	(-10,0)	(14,0)	(4,1)	(272,0)	(2,0)	(20,0)	(1,6)	(246,1)	(204,1)	(247,0)	(287,0)	(41,0)	(40,0)	
L1D -205>	(0,70)	(198,0)	(204,0)	(1,1)	(207,0)	(3,0)	(9,0)	(6,0)	(1,0)	(1,0)	(1,0)	(1,0)	(1,0)	(1,0)	(1,0)	(1,0)	
L1D -204>	(5,21)	(0,2)	(8,6)	(9,1)	(4,1)	(168,3)	(1,3)	(117,1)	(41,113)	(2,1)	(169,3)	(202,0)	(-18,0)	(196,0)	(204,0)	(212,0)	
L1D -203>	(41,73)	(5,23)	(40,110)	(4,15)	(9,64)	(193,1)	(-4,2)	(49,1)	(0,0)	(203,0)	(243,0)	(6,0)	(1,0)	(-1,0)	(-12,0)	(-161,0)	
L1D -202>	(4,43)	(9,122)	(264,0)	(44,32)	(193,97)	(8,0)	(13,0)	(242,0)	(41,0)	(0,1)	(-4,1)	(117,0)	(-9,5)	(-6,0)	(5,1)	(1,0)	
L1D -201>	(1,7)	(9,55)	(0,36)	(201,2)	(193,20)	(242,12)	(29,4)	(199,4)	(192,6)	(5,11)	(197,5)	(41,36)	(40,6)	(8,14)	(256,1)	(2,2)	
L1D -200>	(-2,1)	(40,48)	(41,19)	(5,62)	(198,13)	(-18,1)	(0,54)	(3,8)	(199,2)	(1,10)	(200,1)	(4,19)	(6,2)	(24,2)	(197,1)	(-4,1)	
L1D -199>	(2,0)	(5,70)	(-8,0)	(41,33)	(201,0)	(0,0)	(-1,0)	(9,3)	(-48,0)	(187,0)	(1,44)	(1,0)	(1,0)	(1,0)	(1,0)	(1,0)	
L1D -198>	(202,1)	(4,1)	(5,0)	(40,100)	(-40,0)	(-26,0)	(0,2)	(-44,9)	(41,2)	(-202,1)	(188,0)	(-9,112)	(172,0)	(120,0)	(6,0)	(1,3)	
L1D -197>	(198,3)	(4,4)	(1,8)	(9,7)	(3,13)	(-61,16)	(0,38)	(-16,13)	(199,11)	(195,4)	(-10,60)	(2,2)	(126,1)	(13,3)	(-83,2)	(-1,1)	
L1D -196>	(194,4)	(196,40)	(0,32)	(-18,7)	(225,1)	(1,4)	(-42,1)	(207,1)	(4,5)	(-14,4)	(2,2)	(-20,1)	(-28,1)	(-137,1)	(232,2)	(28,2)	
L1D -195>	(0,41)	(1,5)	(195,14)	(9,1)	(192,1)	(12,1)	(-20,4)	(41,6)	(252,1)	(-54,1)	(194,1)	(225,1)	(5,1)	(20,1)	(-2,1)	(193,4)	
L1D -194>	(0,4)	(192,1)	(2,1)	(41,114)	(5,41)	(-8,1)	(9,38)	(40,2)	(-12,0)	(207,0)	(1,4)	(1,0)	(1,0)	(1,0)	(1,0)	(1,0)	
L1D -193>	(-44,0)	(0,1)	(160,0)	(268,0)	(-5,0)	(13,118)	(234,1)	(-9,0)	(165,0)	(44,10)	(199,5)	(198,4)	(1,0)	(1,0)	(1,0)	(1,0)	
L1D -192>	(0,28)	(197,26)	(190,5)	(1,7)	(6,1)	(-44,1)	(-100,1)	(-10,1)	(117,2)	(162,1)	(-28,1)	(20,76)	(146,1)	(220,2)	(193,5)	(7,4)	
L1D -191>	(6,5)	(0,35)	(20,37)	(220,2)	(193,23)	(189,4)	(-20,4)	(7,11)	(191,1)	(9,4)	(29,1)	(2,1)	(124,1)	(192,1)	(36,1)	(1,6)	
L1D -190>	(5,105)	(0,23)	(2,2)	(-8,3)	(-228,1)	(-20,1)	(1,7)	(270,1)	(102,7)	(101,1)	(146,1)	(8,13)	(3,1)	(188,4)	(191,1)	(193,1)	
L1D -189>	(0,2)	(1,1)	(24,0)	(4,0)	(101,0)	(13,5)	(187,0)	(184,0)	(196,0)	(212,0)	(-9,69)	(102,0)	(6,0)	(-4,0)	(-5,0)	(45,0)	
L1D -188>	(0,19)	(2,2)	(211,4)	(188,3)	(28,3)	(-20,3)	(236,1)	(-1,1)	(1,11)	(83,1)	(414,1)	(38,6)	(5,53)	(186,5)	(-8,3)	(-6,1)	
L1D -187>	(13,79)	(100,0)	(-20,2)	(0,0)	(146,0)	(290,0)	(1,0)	(1,0)	(1,0)	(1,0)	(1,0)	(1,0)	(1,0)	(1,0)	(1,0)	(1,0)	
L1D -186>	(1,9)	(0,18)	(190,11)	(8,1)	(4,1)	(6,1)	(14,1)	(220,1)	(252,1)	(24,1)	(184,4)	(232,1)	(-181,1)	(240,1)	(-18,1)	(390,1)	
L1D -185>	(104,57)	(2,1)	(0,22)	(1,6)	(5,1)	(29,1)	(6,1)	(194,1)	(90,27)	(45,7)	(-4,1)	(165,1)	(183,4)	(12,1)	(1,0)	(1,0)	
L1D -184>	(40,3)	(0,20)	(1,8)	(6,1)	(28,5)	(135,13)	(24,2)	(193,14)	(162,14)	(45,6)	(182,4)	(146,5)	(184,3)	(104,34)	(20,2)	(90,19)	
L1D -183>	(0,34)	(2,79)	(1,7)	(-9,12)	(5,1)	(6,10)	(-86,1)	(88,1)	(94,68)	(104,49)	(164,1)	(16,1)	(181,4)	(4,1)	(1,0)	(1,0)	
L1D -182>	(94,68)	(180,4)	(-26,3)	(-9,11)	(0,30)	(146,2)	(4,5)	(1,8)	(-122,1)	(-18,3)	(88,3)	(6,1)	(-28,1)	(182,1)	(-104,1)	(44,1)	
L1D -181>	(0,25)	(1,12)	(104,27)	(183,2)	(-74,1)	(88,2)	(142,2)	(5,4)	(-180,1)	(3,1)	(181,1)	(6,1)	(179,4)	(27,1)	(1,0)	(1,0)	
L1D -180>	(174,0)	(-18,0)	(-9,62)	(0,1)	(8,0)	(26,0)	(13,127)	(34,2)	(50,0)	(-11,0)	(304,0)	(88,0)	(1,3)	(1,0)	(1,0)	(1,0)	
L1D -179>	(-1,95)	(179,0)	(-116,0)	(34,0)	(0,1)	(-6,0)	(1,2)	(1,0)	(1,0)	(1,0)	(1,0)	(1,0)	(1,0)	(1,0)	(1,0)	(1,0)	
L1D -178>	(1,109)	(0,6)	(88,13)	(2,0)	(18,0)	(440,0)	(186,0)	(9,0)	(-1,0)	(176,0)	(1,0)	(1,0)	(1,0)	(1,0)	(1,0)	(1,0)	
L1D -177>	(0,25)	(1,67)	(286,18)	(276,53)	(170,0)	(-1,1)	(3,0)	(88,29)	(171,0)	(1,0)	(1,0)	(1,0)	(1,0)	(1,0)	(1,0)	(1,0)	
L1D -176>	(0,67)	(88,47)	(264,7)	(-1,0)	(352,0)	(-177,0)	(2,0)	(1,1)	(1,0)	(1,0)	(1,0)	(1,0)	(1,0)	(1,0)	(1,0)	(1,0)	
L1D -175>	(170,19)	(1,3)	(-168,14)	(0,41)	(173,0)	(9,70)	(-1,0)	(88,58)	(171,22)	(6,0)	(87,1)	(177,0)	(136,0)	(184,0)	(179,0)	(5,0)	
L1D -174>	(28,19)	(1,8)	(-3,103)	(168,57)	(115,1)	(338,41)	(0,25)	(13,15)	(5,1)	(50,24)	(20,7)	(100,0)	(-5,28)	(172,0)	(4,6)	(87,23)	
L1D -173>	(-1,47)	(28,115)	(172,0)	(99,0)	(86,2)	(0,2)	(171,0)	(114,0)	(105,0)	(1,0)	(1,0)	(1,0)	(1,0)	(1,0)	(1,0)	(1,0)	
L1D -172>	(102,0)	(400,0)	(173,0)	(5,0)	(9,17)	(170,0)	(0,2)	(167,12)	(172,1)	(178,1)	(117,0)	(280,0)	(-6,0)	(1,0)	(-11,86)	(-126,0)	
L1D -171>	(171,12)	(172,2)	(167,0)	(1,2)	(9,1)	(6,0)	(5,0)	(176,0)	(173,0)	(-9,87)	(0,1)	(166,0)	(177,15)	(90,4)	(-11,0)	(-4,2)	
L1D -170>	(33,55)	(0,32)	(-167,84)	(9,0)	(-168,4)	(6,51)	(177,0)	(170,10)	(-4,13)	(1,3)	(92,0)	(-10,0)	(162,0)	(4,0)	(44,0)	(168,14)	
L1D -169>	(1,2)	(157,0)	(170,0)	(-3,0)	(62,0)	(-6,0)	(168,127)	(167,0)	(177,1)	(0,3)	(27,0)	(338,0)	(5,0)	(20,0)	(-20,0)	(2,0)	
L1D -168>	(1,13)	(168,29)	(-3,57)	(-6,6)	(338,11)	(4,0)	(288,0)	(-42,0)	(87,29)	(-11,3)	(0,0)	(343,65)	(9,56)	(-4,5)	(115,2)	(176,0)	
L1D -167>	(4,8)	(10,0)	(-4,13)	(0,0)	(167,1)	(5,60)	(86,21)	(342,9)	(40,0)	(9,15)	(168,1)	(114,1)	(20,2)	(125,0)	(41,125)	(165,0)	
L1D -166>	(0,9)	(1,27)	(-9,24)	(167,21)	(38,6)	(2,3)	(161,1)	(-4,123)	(168,11)	(206,9)	(9,2)	(158,4)	(4,1)	(41,1)	(166,1)	(5,21)	
L1D -165>	(0,5)	(4,6)	(32,22)	(158,96)	(1,5)	(166,1)	(-6,1)	(-8,5)	(159,29)	(8,2)	(206,19)	(154,4)	(9,20)	(160,5)	(41,2)	(53,1)	
L1D -164>	(1,1)	(5,72)	(162,0)	(0,3)	(9,1)	(169,30)	(164,1)	(-6,0)	(-174,3)	(-4,0)	(-66,0)	(154,7)	(194,0)	(-3,11)	(396,0)	(41,1)	
L1D -163>	(9,34)	(40,92)	(-3,5)	(-9,0)	(5,0)	(124,0)	(4,2)	(-4,0)	(1,0)	(0,0)	(41,11)	(1,0)	(1,0)	(1,0)	(1,0)	(1,0)	
L1D -162>	(198,0)	(4,86)	(9,42)	(-42,0)	(-4,18)	(152,1)	(0,0)	(203,0)	(40,13)	(202,0)	(5,28)	(41,0)	(122,2)	(243,0)	(-5,0)	(1,0)	
L1D -161>	(20,0)	(-5,0)	(49,0)	(9,0)	(0,0)	(-14,2)	(201,0)	(44,79)	(5,40)	(6,0)	(202,0)	(85,0)	(206,0)	(159,0)	(84,0)	(161,0)	
L1D -160>	(5,47)	(0,17)	(1,35)	(4,1)	(-5,2)	(2,41)	(-200,1)	(156,10)	(-11,13)	(12,16)	(34,2)	(157,2)	(3,4)	(-242,3)	(119,1)	(158,14)	
L1D -159>	(40,1)	(5,12)	(9,7)	(41,123)	(-3,4)	(120,0)	(-99,56)	(-98,1)	(6,0)	(154,0)	(0,0)	(1,0)	(1,0)	(1,0)	(1,0)	(1,0)	
L1D -158>	(-39,22)	(81,0)	(5,30)	(4,0)	(40,73)	(9,5)	(1,0)	(6,0)	(162,1)	(41,65)	(-46,0)	(-137,0)	(-9,3)	(-3,21)	(0,1)	(91,0)	
L1D -157>	(-2,3)	(0,8)	(1,6)	(-1,2)	(156,51)	(-14,20)	(157,11)	(4,14)	(198,4)	(3,121)	(13,7)	(158,2)	(-121,10)	(5,17)	(-9,8)	(7,1)	
L1D -156>	(154,4)	(-14,124)	(0,8)	(7,10)	(3,11)	(158,28)	(1,4)	(4,2)	(156,4)	(157,5)	(-10,6)	(117,3)	(28,1)	(-44,1)	(85,2)	(52,5)	
L1D -155>	(157,2)	(156,10)	(116,1)	(1,1)	(154,78)	(-14,7)	(-6,0)	(52,1)	(153,0)	(-154,0)	(2,0)	(8,0)	(-137,0)	(1,0)	(1,0)	(1,0)	
L1D -154>	(-14,71)	(156,19)	(155,0)	(-25,5)	(5,30)	(374,0)	(41,67)	(9,8)	(158,1)	(0,0)	(1,0)	(1,0)	(1,0)	(1,0)	(1,0)	(1,0)	
L1D -153>	(154,74)	(40,4)	(1,5)	(155,3)	(156,75)	(157,24)	(158,34)	(-14,12)	(0,7)	(12,16)	(9,2)	(-9,2)	(-5,2)	(133,1)	(4,2)	(151,2)	
L1D -152>	(0,3)	(381,1)	(85,0)	(1,3)	(32,20)	(150,1)	(152,0)	(153,2)	(12,0)	(7,1)	(132,0)	(140,87)	(44,5)	(141,8)	(142,3)	(-8,5)	
L1D -151>	(5,2)	(0,6)	(1,6)	(152,4)	(125,2)	(3,1)	(373,1)	(12,1)	(-13,2)	(118,1)	(204,1)	(149,4)	(151,1)	(1,0)	(1,0)	(1,0)	
L1D -150>	(148,4)	(56,2)	(0,9)	(151,3)	(150,6)	(-114,1)	(144,1)	(229,1)	(75,2)	(38,3)	(37,9)	(188,3)	(187,1)	(1,6)	(-2,1)	(126,1)	
L1D -149>	(1,3)	(147,2)	(3,122)	(27,2)	(0,6)	(123,2)	(41,14)	(4,4)	(13,13)	(149,13)	(159,13)	(2,1)	(24,1)	(-44,28)	(122,1)	(5,4)	
L1D -148>	(-10,3)	(151,2)	(45,7)	(0,15)	(2,2)	(6,8)	(148,10)	(3,17)	(4,2)	(149,22)	(146,4)	(140,11)	(150,6)	(1,1)	(120,1)	(147,1)	
L1D -147>	(1,5)	(141,92)	(121,1)	(140,2)	(5,99)	(-33,32)	(17,2)	(145,1)	(-135,1)	(-6,1)	(30,1)	(6,2)	(3,0)	(232,0)	(34,0)	(152,0)	
L1D -146>	(0,76)	(61,0)	(9,18)	(2,2)	(146,0)	(-158,0)	(-14,0)	(-33,1)	(1,0)	(1,0)	(1,0)	(1,0)	(1,0)	(1,0)	(1,0)	(1,0)	
L1D -145>	(2,5)	(143,4)	(145,12)	(1,10)	(147,1)	(5,20)	(12,34)	(-14,20)	(146,4)	(-2,1)	(0,2)	(346,1)	(356,1)	(9,2)	(-12,1)	(-1,1)	
L1D -144>	(130,98)	(0,12)	(12,0)	(7,7)	(8,0)	(-26,3)	(88,0)	(194,0)	(95,0)	(139,0)	(94,0)	(90,0)	(144,0)	(135,0)	(-50,0)	(1,0)	
L1D -143>	(6,90)	(0,66)	(-92,0)	(3,13)	(129,10)	(143,0)	(148,0)	(123,0)	(1,0)	(1,0)	(1,0)	(1,0)	(1,0)	(1,0)	(1,0)	(1,0)	
L1D -142>	(19,18)	(5,10)	(140,4)	(1,6)	(2,4)	(142,9)	(-11,6)	(69,1)	(0,7)	(82,1)	(61,1)	(71,1)	(220,1)	(-1,3)	(124,1)	(6,9)	
L1D -141>	(1,111)	(5,7)	(0,3)	(141,2)	(-3,44)	(-160,1)	(140,2)	(6,22)	(-207,1)	(108,1)	(142,4)	(105,1)	(128,1)	(-8,1)	(139,4)	(502,1)	
L1D -140>	(0,18)	(90,8)	(2,2)	(41,4)	(138,4)	(-3,4)	(140,1)	(4,1)	(1,8)	(28,1)	(60,1)	(238,1)	(-2,1)	(141,2)	(220,1)	(182,1)	
L1D -139>	(117,2)	(1,11)	(137,4)	(-126,1)	(-182,1)	(19,5)	(139,1)	(3,8)	(140,2)	(376,1)	(138,31)	(5,3)	(0,5)	(-14,20)	(111,1)	(90,19)	
L1D -138>	(2,1)	(158,1)	(1,5)	(0,11)	(88,2)	(138,7)	(112,1)	(414,1)	(-14,65)	(136,5)	(163,1)	(144,1)	(133,1)	(143,1)	(6,1)	(344,1)	
L1D -137>	(-7,82)	(0,5)	(136,32)	(4,0)	(19,0)	(138,3)	(-33,28)	(-14,5)	(139,1)	(228,0)	(6,0)	(5,0)	(12,0)	(135,0)	(1,0)	(1,0)	
L1D -136>	(0,10)	(-314,1)	(127,0)	(-14,124)	(124,0)	(134,0)	(3,0)	(138,37)	(137,1)	(117,0)	(1,1)	(1,0)	(1,0)	(1,0)	(1,0)	(1,0)	
L1D -135>	(5,0)	(-8,105)	(7,0)	(9,0)	(139,0)	(136,0)	(6,2)	(1,1)	(161,0)	(2,0)	(144,0)	(0,0)	(133,0)	(1,0)	(1,0)	(1,0)	
L1D -134>	(2,1)	(14,113)	(61,0)	(135,1)	(171,0)	(134,0)	(1,1)	(190,0)	(132,0)	(0,1)	(9,0)	(4,0)	(-1,0)	(143,0)	(137,0)	(1,0)	
L1D -133>	(133,2)	(134,3)	(14,102)	(1,2)	(-3,17)	(6,65)	(-40,22)	(-1,0)	(-8,10)	(131,1)	(2,1)	(0,1)	(204,0)	(372,0)	(-12,0)	(302,0)	
L1D -132>	(6,89)	(5,2)	(332,0)	(0,4)	(1,3)	(133,1)	(33,2)	(8,0)	(130,1)	(179,27)	(132,4)	(-8,0)	(-3,0)	(118,1)	(124,0)	(128,0)	
L1D -131>	(6,11)	(9,47)	(4,8)	(129,4)	(1,3)	(-1,2)	(24,3)	(5,9)	(70,1)	(157,2)	(132,3)	(131,5)	(30,1)	(179,3)	(0,12)	(117,1)	
L1D -130>	(0,14)	(1,26)	(3,3)	(128,4)	(21,6)	(130,4)	(8,9)	(2,1)	(4,11)	(-137,1)	(426,1)	(9,14)	(55,1)	(131,3)	(5,4)	(7,1)	
L1D -129>	(127,4)	(1,7)	(0,10)	(-1,4)	(9,3)	(129,5)	(106,1)	(-165,1)	(6,4)	(165,4)	(3,2)	(4,2)	(7,1)	(-2,1)	(8,1)	(173,1)	
L1D -128>	(34,83)	(5,1)	(-2,1)	(24,0)	(0,2)	(1,3)	(2,2)	(102,0)	(129,0)	(346,0)	(51,0)	(126,1)	(6,2)	(179,2)	(-1,1)	(-3,0)	
L1D -127>	(41,60)	(5,8)	(40,14)	(0,0)	(9,32)	(34,67)	(3,0)	(127,0)	(128,0)	(136,0)	(4,0)	(-1,0)	(1,0)	(1,0)	(1,0)	(1,0)	
L1D -126>	(4,15)	(9,112)	(40,7)	(18,1)	(38,4)	(226,1)	(0,4)	(1,1)	(162,7)	(-41,1)	(6,33)	(5,4)	(179,12)	(161,1)	(173,0)	(33,2)	
L1D -125>	(0,7)	(-214,1)	(125,1)	(3,9)	(123,0)	(9,0)	(4,65)	(8,44)	(83,0)	(49,0)	(-228,0)	(165,4)	(5,0)	(166,3)	(206,1)	(2,0)	
L1D -124>	(9,7)	(21,81)	(122,4)	(1,9)	(0,19)	(5,10)	(-1,5)	(-4,14)	(4,32)	(127,2)	(82,20)	(113,7)	(124,9)	(41,91)	(-2,6)	(7,1)	
L1D -123>	(123,0)	(5,3)	(4,5)	(105,41)	(41,95)	(134,0)	(-4,10)	(1,4)	(24,0)	(0,2)	(125,0)	(414,0)	(-3,1)	(124,0)	(40,0)	(3,0)	
L1D -122>	(9,47)	(5,80)	(-4,4)	(-3,13)	(40,18)	(-39,0)	(4,42)	(112,0)	(41,7)	(117,8)	(-2,0)	(2,0)	(1,0)	(0,0)	(122,0)	(-242,0)	
L1D -121>	(2,1)	(112,2)	(4,6)	(9,106)	(-4,58)	(11,0)	(-3,8)	(5,0)	(44,1)	(-9,4)	(156,0)	(40,0)	(161,0)	(202,0)	(162,0)	(-5,0)	
L1D -120>	(-45,1)	(30,1)	(103,39)	(0,1)	(9,97)	(44,4)	(41,37)	(161,2)	(1,31)	(-42,1)	(6,1)	(120,2)	(53,0)	(84,1)	(-40,5)	(-8,2)	
L1D -119>	(1,0)	(-72,0)	(-18,71)	(115,0)	(117,7)	(0,0)	(9,29)	(93,0)	(2,7)	(5,72)	(159,0)	(119,0)	(6,0)	(-3,0)	(-8,5)	(150,0)	
L1D -118>	(122,4)	(68,0)	(5,11)	(41,99)	(-3,2)	(1,7)	(-18,11)	(119,0)	(121,0)	(113,0)	(40,1)	(-8,1)	(9,3)	(1,0)	(1,0)	(1,0)	
L1D -117>	(71,8)	(82,11)	(1,48)	(40,106)	(-5,13)	(41,30)	(121,43)	(-4,6)	(-3,10)	(44,1)	(-44,104)	(4,4)	(-207,3)	(-39,25)	(5,10)	(158,1)	
L1D -116>	(-2,3)	(-7,101)	(9,19)	(4,21)	(0,12)	(81,122)	(1,5)	(-244,1)	(117,3)	(114,4)	(116,11)	(77,74)	(157,6)	(-162,3)	(-10,3)	(7,5)	
L1D -115>	(13,105)	(80,36)	(1,3)	(-5,22)	(115,2)	(76,1)	(53,1)	(98,16)	(0,2)	(3,3)	(4,1)	(117,1)	(113,1)	(112,2)	(114,1)	(69,7)	
L1D -114>	(-1,84)	(0,1)	(-142,0)	(6,0)	(114,0)	(5,1)	(-7,5)	(121,0)	(-83,0)	(115,0)	(-81,1)	(41,2)	(-82,0)	(-92,0)	(1,0)	(1,0)	
L1D -113>	(1,0)	(51,0)	(9,7)	(-49,0)	(0,0)	(4,0)	(-9,0)	(5,20)	(114,0)	(41,78)	(78,0)	(17,0)	(-8,0)	(75,0)	(63,0)	(67,0)	
L1D -112>	(113,12)	(37,4)	(-4,10)	(1,72)	(110,4)	(-1,5)	(9,9)	(112,6)	(0,16)	(86,7)	(-9,5)	(-49,15)	(44,15)	(40,2)	(5,3)	(76,3)	
L1D -111>	(45,56)	(0,14)	(1,8)	(93,69)	(79,4)	(5,8)	(100,14)	(9,36)	(98,19)	(109,4)	(6,5)	(111,4)	(32,1)	(202,1)	(24,1)	(-184,1)	
L1D -110>	(-10,13)	(-1,11)	(9,0)	(1,3)	(120,68)	(110,0)	(33,19)	(32,1)	(48,1)	(78,1)	(99,2)	(-4,1)	(97,2)	(8,6)	(0,17)	(98,0)	
L1D -109>	(110,1)	(97,1)	(7,1)	(28,0)	(18,0)	(-5,6)	(0,0)	(2,0)	(89,0)	(33,0)	(11,0)	(20,83)	(-11,0)	(99,3)	(-1,2)	(1,0)	
L1D -108>	(-10,59)	(78,100)	(0,42)	(1,18)	(-2,42)	(60,4)	(117,4)	(118,2)	(-44,1)	(-6,3)	(107,2)	(99,1)	(110,72)	(2,1)	(-12,30)	(97,6)	
L1D -107>	(109,58)	(0,2)	(105,1)	(5,116)	(9,1)	(186,1)	(1,1)	(33,1)	(-5,46)	(107,7)	(-3,36)	(31,35)	(-82,1)	(-8,7)	(108,1)	(156,0)	
L1D -106>	(117,106)	(-42,1)	(106,7)	(4,1)	(9,0)	(107,3)	(-4,8)	(-1,0)	(0,2)	(104,0)	(6,0)	(1,0)	(1,0)	(1,0)	(1,0)	(1,0)	
L1D -105>	(0,120)	(-4,55)	(86,15)	(-1,1)	(102,0)	(-328,87)	(106,0)	(9,0)	(-2,1)	(24,0)	(3,2)	(1,0)	(1,0)	(1,0)	(1,0)	(1,0)	
L1D -104>	(103,3)	(3,3)	(-52,124)	(104,15)	(-102,10)	(54,2)	(0,5)	(-4,1)	(45,2)	(105,2)	(336,1)	(5,1)	(-2,1)	(95,3)	(102,1)	(50,2)	
L1D -103>	(60,101)	(-52,6)	(2,23)	(0,1)	(97,0)	(103,11)	(6,0)	(15,12)	(7,1)	(1,22)	(4,0)	(112,0)	(49,0)	(104,14)	(-102,0)	(9,0)	
L1D -102>	(390,0)	(0,5)	(104,119)	(-270,0)	(-7,3)	(5,0)	(-76,0)	(103,0)	(-6,3)	(13,0)	(4,13)	(102,0)	(88,0)	(6,0)	(1,1)	(1,0)	
L1D -101>	(190,59)	(-1,30)	(9,0)	(99,0)	(189,0)	(41,76)	(2,35)	(98,0)	(0,6)	(101,1)	(102,1)	(13,0)	(103,1)	(6,0)	(1,0)	(-137,0)	
L1D -100>	(5,2)	(11,29)	(-4,81)	(100,5)	(4,0)	(120,0)	(62,2)	(-3,0)	(61,0)	(-2,0)	(101,3)	(2,0)	(3,0)	(1,1)	(0,0)	(1,0)	
L1D -99>	(99,48)	(0,68)	(61,2)	(11,1)	(110,1)	(13,1)	(78,17)	(258,1)	(79,0)	(89,9)	(62,98)	(60,7)	(101,14)	(98,1)	(24,17)	(-1,0)	
L1D -98>	(0,57)	(-1,18)	(78,82)	(98,66)	(60,68)	(-12,1)	(97,10)	(109,2)	(13,1)	(-58,16)	(68,0)	(88,0)	(99,9)	(1,0)	(24,1)	(108,16)	
L1D -97>	(1,0)	(-96,0)	(8,1)	(0,0)	(98,53)	(41,90)	(2,91)	(4,0)	(99,1)	(9,0)	(87,0)	(-7,10)	(97,8)	(-3,0)	(96,0)	(13,2)	
L1D -96>	(0,27)	(95,2)	(-8,9)	(-4,124)	(386,1)	(8,1)	(-9,3)	(11,3)	(28,1)	(292,1)	(-1,0)	(370,0)	(97,0)	(107,0)	(96,0)	(-58,21)	
L1D -95>	(99,66)	(24,0)	(485,0)	(11,4)	(2,26)	(101,0)	(1,11)	(4,1)	(95,1)	(-13,1)	(0,0)	(6,0)	(5,0)	(9,0)	(96,0)	(8,0)	
L1D -94>	(95,1)	(328,1)	(0,1)	(-14,0)	(62,0)	(-4,74)	(2,0)	(4,2)	(3,1)	(11,1)	(1,1)	(45,0)	(9,0)	(-50,0)	(90,0)	(135,0)	
L1D -93>	(-8,39)	(-2,22)	(124,0)	(-1,28)	(45,79)	(94,1)	(8,2)	(0,31)	(132,0)	(107,3)	(146,0)	(24,3)	(2,50)	(95,0)	(9,19)	(1,8)	
L1D -92>	(91,1)	(-8,4)	(156,1)	(-9,104)	(107,13)	(97,1)	(7,2)	(-4,2)	(1,20)	(86,0)	(0,2)	(95,69)	(116,0)	(9,4)	(-312,0)	(92,3)	
L1D -91>	(122,0)	(1,34)	(2,0)	(93,35)	(15,16)	(130,0)	(96,83)	(0,0)	(175,12)	(91,0)	(8,14)	(-7,2)	(-3,0)	(-48,0)	(1,0)	(1,0)	
L1D -90>	(1,6)	(-4,15)	(9,2)	(0,2)	(-34,26)	(4,1)	(90,30)	(-1,30)	(-21,0)	(2,0)	(-8,97)	(91,23)	(7,4)	(88,0)	(14,0)	(15,7)	
L1D -89>	(1,6)	(0,16)	(-7,1)	(-101,0)	(130,0)	(97,0)	(91,2)	(6,17)	(-34,10)	(78,0)	(4,0)	(99,0)	(-1,0)	(88,72)	(84,0)	(98,0)	
L1D -88>	(0,92)	(410,0)	(88,53)	(9,0)	(-1,3)	(-9,16)	(-2,1)	(79,0)	(90,1)	(-8,14)	(94,0)	(-11,0)	(26,0)	(6,3)	(-15,0)	(1,11)	
L1D -87>	(0,78)	(1,43)	(98,80)	(86,3)	(97,1)	(88,38)	(9,5)	(87,125)	(-4,0)	(171,0)	(6,0)	(7,0)	(89,15)	(-222,0)	(-1,0)	(132,0)	
L1D -86>	(14,2)	(5,1)	(256,0)	(41,50)	(86,1)	(4,2)	(83,9)	(40,93)	(2,0)	(87,2)	(-137,0)	(-4,6)	(1,3)	(9,23)	(88,9)	(3,0)	
L1D -85>	(-8,12)	(-9,1)	(1,4)	(87,1)	(4,32)	(8,0)	(-5,4)	(82,3)	(-13,2)	(-2,4)	(9,27)	(38,1)	(107,1)	(125,2)	(92,12)	(-23,76)	
L1D -84>	(-8,1)	(109,125)	(13,12)	(206,1)	(-14,110)	(88,1)	(5,22)	(-9,13)	(85,5)	(0,1)	(26,0)	(8,0)	(165,13)	(125,81)	(84,63)	(87,23)	
L1D -83>	(-4,1)	(90,0)	(-5,8)	(9,3)	(0,0)	(83,1)	(78,0)	(124,0)	(-42,0)	(-9,73)	(85,2)	(108,6)	(41,1)	(40,0)	(42,0)	(123,0)	
L1D -82>	(-3,100)	(5,2)	(83,1)	(4,5)	(-102,14)	(117,16)	(2,2)	(6,1)	(40,0)	(41,0)	(-107,0)	(1,5)	(-115,1)	(77,0)	(81,1)	(9,31)	
L1D -81>	(5,23)	(-1,1)	(-7,4)	(81,0)	(4,32)	(3,0)	(75,0)	(-9,0)	(116,2)	(40,8)	(79,6)	(78,0)	(-2,3)	(1,0)	(243,0)	(9,103)	
L1D -80>	(9,69)	(115,87)	(-58,48)	(0,37)	(5,5)	(44,12)	(19,3)	(2,5)	(4,16)	(81,5)	(368,1)	(52,74)	(121,2)	(13,1)	(84,93)	(18,1)	
L1D -79>	(83,101)	(-242,0)	(2,0)	(-4,9)	(-1,0)	(5,1)	(-2,44)	(120,0)	(77,19)	(41,1)	(-3,0)	(75,1)	(62,0)	(1,0)	(-102,0)	(-107,0)	
L1D -78>	(-1,14)	(0,41)	(113,2)	(60,41)	(-36,18)	(-3,46)	(-42,1)	(73,1)	(99,3)	(1,78)	(98,8)	(-8,3)	(87,4)	(2,18)	(-58,8)	(80,47)	
L1D -77>	(1,25)	(81,8)	(-8,1)	(-39,3)	(14,3)	(2,5)	(-40,0)	(-4,64)	(41,50)	(-37,4)	(-44,0)	(-9,14)	(77,12)	(40,83)	(-201,0)	(-2,1)	
L1D -76>	(47,1)	(2,9)	(76,57)	(0,62)	(1,18)	(75,67)	(5,8)	(-5,18)	(82,3)	(-44,3)	(-9,5)	(4,2)	(-36,47)	(117,19)	(-38,1)	(116,5)	
L1D -75>	(0,85)	(1,75)	(76,106)	(75,58)	(37,1)	(32,8)	(-39,6)	(38,1)	(77,2)	(-37,1)	(84,33)	(18,23)	(73,1)	(44,4)	(-6,8)	(4,1)	
L1D -74>	(4,2)	(-3,33)	(76,1)	(-2,92)	(74,3)	(20,1)	(1,47)	(-18,50)	(17,8)	(-7,5)	(68,0)	(73,3)	(0,0)	(3,1)	(38,0)	(-1,0)	
L1D -73>	(15,7)	(20,4)	(75,6)	(221,0)	(0,2)	(73,8)	(-1,18)	(1,33)	(130,0)	(-2,64)	(9,29)	(41,5)	(67,1)	(14,23)	(80,0)	(5,2)	
L1D -72>	(76,6)	(-1,84)	(14,2)	(15,12)	(-2,1)	(77,4)	(112,1)	(18,1)	(73,1)	(1,0)	(81,0)	(-4,5)	(-5,16)	(24,0)	(0,0)	(72,1)	
L1D -71>	(-3,65)	(124,0)	(4,0)	(75,0)	(1,66)	(65,21)	(-10,1)	(-4,0)	(-1,7)	(-5,5)	(-6,3)	(20,1)	(71,0)	(1,0)	(1,0)	(1,0)	
L1D -70>	(-1,6)	(1,119)	(30,110)	(-5,1)	(-85,17)	(4,4)	(5,24)	(70,9)	(3,0)	(-2,9)	(72,0)	(-3,47)	(-7,107)	(-4,1)	(0,6)	(11,11)	
L1D -69>	(22,14)	(326,0)	(0,0)	(-75,0)	(69,0)	(-85,7)	(70,0)	(-1,107)	(67,6)	(5,0)	(73,2)	(2,0)	(1,0)	(296,0)	(34,0)	(31,0)	
L1D -68>	(69,0)	(72,65)	(66,0)	(22,8)	(-2,20)	(-3,51)	(-1,4)	(-4,1)	(-20,0)	(487,0)	(1,1)	(2,0)	(0,1)	(3,0)	(4,0)	(1,0)	
L1D -67>	(2,97)	(-3,40)	(1,14)	(-7,0)	(0,0)	(67,0)	(-9,0)	(-6,8)	(-1,37)	(69,11)	(-8,10)	(-2,0)	(-10,0)	(68,0)	(-5,0)	(1,0)	
L1D -66>	(-45,12)	(-1,0)	(154,0)	(-7,73)	(7,0)	(-4,15)	(4,0)	(67,0)	(66,0)	(-20,0)	(-6,3)	(1,1)	(1,0)	(1,0)	(1,0)	(1,0)	
L1D -65>	(1,27)	(6,9)	(2,6)	(57,2)	(65,21)	(10,3)	(0,6)	(118,5)	(63,3)	(158,1)	(246,1)	(59,25)	(3,12)	(24,3)	(420,1)	(66,11)	
L1D -64>	(-3,8)	(0,86)	(-4,40)	(-170,1)	(11,3)	(2,1)	(-5,7)	(28,12)	(1,4)	(51,1)	(-2,6)	(65,13)	(31,2)	(69,5)	(23,1)	(4,19)	
L1D -63>	(0,36)	(-8,3)	(-1,20)	(14,3)	(63,14)	(5,1)	(1,72)	(34,29)	(-7,1)	(20,4)	(40,0)	(4,14)	(17,3)	(2,10)	(22,5)	(21,3)	
L1D -62>	(2,102)	(-6,14)	(51,55)	(-23,1)	(56,25)	(-2,87)	(4,0)	(60,0)	(-1,80)	(9,1)	(0,2)	(52,8)	(53,0)	(-3,2)	(62,1)	(58,0)	
L1D -61>	(16,0)	(1,99)	(61,1)	(62,0)	(257,1)	(69,0)	(0,0)	(3,79)	(34,0)	(99,4)	(-1,0)	(5,1)	(79,0)	(1,0)	(1,0)	(1,0)	
L1D -60>	(60,81)	(2,2)	(99,33)	(-1,12)	(0,62)	(-2,26)	(97,0)	(-4,7)	(128,0)	(4,4)	(-3,8)	(-5,14)	(392,0)	(40,0)	(-8,0)	(7,0)	
L1D -59>	(1,58)	(63,74)	(0,30)	(60,3)	(-8,5)	(-22,2)	(57,4)	(20,9)	(-1,57)	(50,4)	(59,20)	(-11,2)	(58,2)	(9,24)	(5,1)	(402,1)	
L1D -58>	(56,5)	(2,118)	(1,68)	(36,1)	(4,0)	(6,0)	(-14,53)	(-5,0)	(174,0)	(-2,78)	(49,0)	(103,0)	(0,6)	(15,0)	(40,0)	(5,1)	
L1D -57>	(27,7)	(57,71)	(-23,6)	(-1,63)	(8,1)	(9,6)	(0,93)	(55,3)	(-2,7)	(61,47)	(1,3)	(53,1)	(-10,3)	(62,1)	(446,1)	(58,6)	
L1D -56>	(45,3)	(-1,32)	(-2,66)	(-4,3)	(62,1)	(3,1)	(122,0)	(41,0)	(44,0)	(203,0)	(56,0)	(6,0)	(-37,0)	(463,0)	(284,0)	(58,0)	
L1D -55>	(-2,80)	(167,1)	(57,3)	(2,0)	(-5,0)	(-1,2)	(63,0)	(3,0)	(66,0)	(69,0)	(70,0)	(54,0)	(7,0)	(55,0)	(1,0)	(45,0)	
L1D -54>	(1,9)	(3,3)	(-1,76)	(-5,1)	(56,79)	(-23,1)	(55,1)	(14,4)	(107,0)	(223,10)	(-3,0)	(7,0)	(54,0)	(0,0)	(-2,0)	(49,0)	
L1D -53>	(44,21)	(358,37)	(64,80)	(12,0)	(-9,0)	(4,8)	(54,0)	(0,0)	(53,0)	(17,3)	(2,0)	(20,0)	(161,0)	(-218,0)	(1,0)	(1,0)	
L1D -52>	(-26,34)	(-103,0)	(52,8)	(5,0)	(24,2)	(11,0)	(29,98)	(43,5)	(156,1)	(8,0)	(0,0)	(155,1)	(56,0)	(1,107)	(60,0)	(53,0)	
L1D -51>	(52,115)	(6,21)	(1,6)	(-4,4)	(60,3)	(155,58)	(-2,104)	(5,17)	(26,3)	(51,19)	(-26,2)	(9,2)	(49,1)	(4,6)	(-260,2)	(18,1)	
L1D -50>	(2,108)	(51,1)	(1,89)	(24,1)	(52,0)	(-1,0)	(55,0)	(50,1)	(9,0)	(4,6)	(-4,2)	(18,0)	(14,5)	(-5,3)	(-3,4)	(3,10)	
L1D -49>	(-4,3)	(0,40)	(50,1)	(4,6)	(56,4)	(-6,0)	(-5,76)	(53,8)	(-2,12)	(89,2)	(44,1)	(-9,7)	(3,2)	(-1,17)	(49,2)	(9,2)	
L1D -48>	(-9,76)	(37,0)	(-4,0)	(2,1)	(-1,16)	(18,0)	(1,0)	(52,0)	(47,0)	(48,0)	(50,0)	(9,0)	(3,0)	(-10,28)	(0,1)	(-427,0)	
L1D -47>	(-24,0)	(8,0)	(0,64)	(125,0)	(2,8)	(47,8)	(3,0)	(-2,0)	(49,30)	(53,0)	(7,0)	(-7,0)	(1,0)	(1,0)	(1,0)	(1,0)	
L1D -46>	(-1,19)	(41,17)	(-3,126)	(1,43)	(-7,0)	(40,1)	(44,3)	(-8,3)	(26,0)	(93,2)	(-4,0)	(56,0)	(-2,0)	(-5,3)	(45,12)	(48,14)	
L1D -45>	(-1,4)	(41,1)	(43,56)	(93,16)	(5,18)	(36,1)	(63,8)	(9,10)	(4,2)	(1,5)	(45,95)	(-4,29)	(-2,33)	(-9,53)	(3,2)	(-5,52)	
L1D -44>	(206,1)	(5,1)	(-1,34)	(85,7)	(9,1)	(-3,13)	(84,80)	(2,1)	(-6,1)	(3,3)	(46,44)	(79,4)	(42,11)	(48,8)	(44,8)	(4,6)	
L1D -43>	(-7,8)	(7,0)	(-3,43)	(-2,57)	(-13,3)	(-11,3)	(45,26)	(1,5)	(-9,0)	(2,0)	(43,14)	(-4,2)	(47,91)	(4,0)	(-1,0)	(-12,1)	
L1D -42>	(49,0)	(42,65)	(48,1)	(33,1)	(-3,6)	(43,80)	(5,0)	(44,4)	(0,1)	(6,1)	(-5,1)	(-1,0)	(-9,0)	(2,0)	(46,0)	(1,7)	
L1D -41>	(-1,1)	(45,1)	(5,26)	(40,5)	(-3,10)	(9,22)	(0,2)	(43,62)	(-4,10)	(1,1)	(48,1)	(42,122)	(2,1)	(41,2)	(-2,2)	(-9,45)	
L1D -40>	(-16,7)	(4,68)	(40,12)	(166,1)	(81,6)	(45,1)	(41,0)	(-4,2)	(5,1)	(-243,0)	(39,13)	(-13,0)	(9,17)	(0,2)	(148,0)	(-7,1)	
L1D -39>	(-6,5)	(0,6)	(37,1)	(39,9)	(46,1)	(1,8)	(-22,1)	(6,1)	(2,1)	(50,9)	(44,107)	(79,1)	(3,4)	(29,1)	(8,1)	(84,20)	
L1D -38>	(38,13)	(2,1)	(5,0)	(-2,10)	(18,0)	(11,18)	(36,68)	(9,2)	(-5,61)	(4,43)	(-7,1)	(32,54)	(-3,10)	(44,8)	(39,1)	(-60,1)	
L1D -37>	(40,17)	(36,0)	(41,0)	(19,0)	(9,6)	(17,0)	(2,6)	(-3,0)	(11,0)	(0,2)	(196,0)	(-1,2)	(14,2)	(1,0)	(-2,1)	(5,77)	
L1D -36>	(25,15)	(13,1)	(44,1)	(-3,2)	(9,6)	(36,5)	(-1,9)	(5,22)	(2,33)	(-4,2)	(40,30)	(4,46)	(1,76)	(3,4)	(38,8)	(-9,0)	
L1D -35>	(0,1)	(-1,56)	(1,57)	(-3,98)	(-14,1)	(57,2)	(-4,0)	(29,1)	(4,6)	(35,14)	(-169,3)	(-80,4)	(9,7)	(-5,1)	(-82,4)	(-10,0)	
L1D -34>	(2,20)	(0,77)	(36,9)	(26,2)	(4,31)	(1,64)	(-4,17)	(34,36)	(32,58)	(-10,0)	(5,1)	(11,4)	(-3,3)	(-11,12)	(-5,0)	(-7,9)	
L1D -33>	(-1,3)	(20,2)	(50,1)	(21,1)	(11,1)	(2,3)	(19,4)	(1,29)	(-3,4)	(33,0)	(180,0)	(0,2)	(37,79)	(28,1)	(3,0)	(10,4)	
L1D -32>	(1,5)	(36,112)	(102,2)	(0,1)	(-1,46)	(41,5)	(-2,80)	(2,67)	(4,75)	(5,81)	(-14,11)	(30,7)	(-3,42)	(40,10)	(28,2)	(6,7)	
L1D -31>	(-6,2)	(-3,111)	(-1,2)	(1,8)	(-13,3)	(-5,34)	(9,51)	(5,111)	(-8,66)	(40,6)	(0,3)	(2,4)	(4,49)	(-239,11)	(-250,4)	(-14,4)	
L1D -30>	(99,1)	(280,1)	(-5,9)	(31,1)	(-7,5)	(3,7)	(30,1)	(44,5)	(2,37)	(0,1)	(6,7)	(13,1)	(157,0)	(4,7)	(-6,10)	(-4,96)	
L1D -29>	(-1,20)	(28,26)	(-6,35)	(2,16)	(-331,1)	(21,12)	(43,38)	(1,55)	(3,14)	(26,117)	(6,48)	(29,7)	(9,3)	(-9,38)	(35,9)	(-241,4)	
L1D -28>	(-4,18)	(0,95)	(2,107)	(-319,48)	(1,26)	(16,1)	(10,14)	(28,5)	(-14,10)	(4,37)	(15,1)	(25,5)	(56,1)	(36,12)	(32,1)	(-320,81)	
L1D -27>	(14,1)	(28,1)	(7,1)	(-7,4)	(-8,1)	(-12,1)	(2,2)	(40,48)	(4,2)	(1,88)	(30,3)	(27,28)	(-117,1)	(-11,2)	(23,3)	(0,6)	
L1D -26>	(25,1)	(-5,73)	(35,6)	(-199,16)	(0,41)	(5,76)	(-1,35)	(-6,13)	(19,5)	(33,26)	(2,23)	(-2,27)	(40,32)	(-10,15)	(4,22)	(1,71)	
L1D -25>	(18,1)	(19,1)	(-10,92)	(1,75)	(-52,0)	(-1,12)	(41,26)	(4,1)	(77,1)	(5,0)	(14,23)	(6,0)	(26,21)	(25,3)	(0,4)	(16,0)	
L1D -24>	(8,2)	(0,8)	(99,1)	(25,1)	(2,25)	(-4,73)	(3,70)	(7,43)	(12,13)	(-8,2)	(6,1)	(1,13)	(33,2)	(-2,2)	(-5,1)	(-3,0)	
L1D -23>	(23,16)	(9,5)	(3,32)	(-13,6)	(118,105)	(27,10)	(-7,29)	(-5,1)	(-10,7)	(0,73)	(-11,6)	(1,37)	(-12,13)	(2,35)	(36,13)	(22,46)	
L1D -22>	(4,43)	(-6,0)	(48,2)	(1,7)	(-1,0)	(5,109)	(2,4)	(36,6)	(250,4)	(-239,5)	(0,4)	(40,17)	(-9,40)	(9,0)	(-37,11)	(20,1)	
L1D -21>	(0,8)	(1,50)	(-6,1)	(10,1)	(17,2)	(-10,54)	(-3,2)	(21,8)	(-1,94)	(26,1)	(16,50)	(-78,16)	(19,7)	(110,3)	(-2,1)	(25,4)	
L1D -20>	(-1,102)	(7,1)	(24,9)	(3,9)	(1,35)	(-78,4)	(-6,20)	(0,65)	(23,20)	(19,48)	(6,14)	(5,37)	(26,25)	(-3,8)	(20,52)	(13,29)	
L1D -19>	(12,2)	(101,2)	(-2,85)	(9,6)	(1,8)	(-7,7)	(91,1)	(26,2)	(-1,34)	(-9,30)	(4,80)	(2,4)	(8,17)	(19,1)	(41,1)	(-5,1)	
L1D -18>	(-5,1)	(1,98)	(-6,2)	(22,2)	(-3,17)	(3,23)	(5,18)	(21,4)	(9,18)	(17,46)	(256,2)	(15,14)	(-1,4)	(7,3)	(2,32)	(19,17)	
L1D -17>	(1,98)	(9,8)	(-91,3)	(0,2)	(5,4)	(2,4)	(-1,1)	(-6,1)	(40,13)	(-77,18)	(-199,1)	(202,1)	(4,69)	(7,14)	(-5,113)	(121,2)	
L1D -16>	(20,5)	(18,8)	(-5,111)	(-1,23)	(-14,1)	(3,16)	(1,75)	(15,9)	(-83,7)	(39,3)	(63,14)	(16,50)	(7,18)	(-6,76)	(-3,10)	(4,8)	
L1D -15>	(15,1)	(1,12)	(2,9)	(0,82)	(-11,17)	(20,2)	(51,16)	(17,22)	(6,4)	(93,11)	(12,3)	(-4,19)	(87,3)	(31,4)	(-6,6)	(3,2)	
L1D -14>	(4,11)	(0,70)	(-2,2)	(6,2)	(-3,14)	(18,4)	(56,16)	(16,5)	(2,89)	(-14,2)	(9,4)	(108,5)	(101,3)	(1,3)	(10,18)	(74,4)	
L1D -13>	(1,18)	(40,1)	(17,26)	(-5,27)	(165,10)	(0,1)	(11,1)	(2,1)	(13,27)	(4,11)	(15,1)	(-9,67)	(-6,7)	(14,0)	(98,1)	(95,1)	
L1D -12>	(118,9)	(1,74)	(3,37)	(10,11)	(-5,14)	(2,35)	(5,1)	(14,4)	(4,3)	(0,14)	(18,4)	(-10,20)	(11,1)	(12,5)	(99,6)	(8,11)	
L1D -11>	(-4,39)	(41,8)	(0,39)	(-9,125)	(-8,13)	(11,39)	(1,36)	(93,6)	(47,43)	(2,22)	(-1,1)	(26,38)	(5,67)	(4,32)	(-7,21)	(83,4)	
L1D -10>	(25,11)	(-2,57)	(10,123)	(-46,1)	(41,28)	(-6,11)	(0,21)	(57,31)	(4,68)	(13,2)	(77,22)	(2,22)	(9,33)	(7,23)	(1,29)	(5,10)	
L1D -9>	(117,1)	(2,17)	(5,18)	(0,19)	(1,11)	(18,29)	(9,52)	(4,25)	(-1,92)	(12,37)	(-3,9)	(55,22)	(24,8)	(-4,5)	(61,11)	(13,7)	
L1D -8>	(1,97)	(-10,56)	(10,55)	(93,35)	(55,1)	(9,31)	(15,31)	(8,37)	(30,30)	(-1,74)	(4,13)	(2,6)	(109,18)	(0,66)	(129,37)	(12,25)	
L1D -7>	(66,92)	(0,59)	(85,4)	(12,36)	(56,71)	(-4,17)	(-3,1)	(7,15)	(15,17)	(1,57)	(2,8)	(20,7)	(14,15)	(3,14)	(-1,31)	(30,105)	
L1D -6>	(-5,23)	(17,19)	(41,31)	(77,10)	(1,115)	(0,8)	(4,18)	(9,42)	(6,1)	(10,14)	(5,115)	(12,62)	(-2,9)	(-6,22)	(-1,9)	(30,17)	
L1D -5>	(18,18)	(0,41)	(10,9)	(5,119)	(41,40)	(-1,57)	(16,18)	(40,6)	(1,28)	(-7,1)	(4,30)	(-2,8)	(-11,33)	(77,29)	(9,38)	(-6,29)	
L1D -4>	(-1,6)	(0,59)	(-7,5)	(1,51)	(341,1)	(-4,76)	(2,47)	(4,43)	(7,9)	(-6,8)	(18,8)	(9,13)	(-3,14)	(-5,32)	(15,50)	(11,16)	
L1D -3>	(14,1)	(0,71)	(-1,55)	(4,48)	(-7,17)	(1,71)	(6,25)	(-2,65)	(-9,29)	(20,25)	(43,16)	(-4,16)	(27,18)	(3,20)	(-5,25)	(32,17)	
L1D -2>	(5,29)	(1,21)	(-7,22)	(49,1)	(2,42)	(-5,20)	(4,21)	(15,41)	(16,12)	(-4,25)	(-9,12)	(6,13)	(0,113)	(-2,66)	(-3,28)	(11,14)	
L1D -1>	(5,95)	(10,2)	(0,122)	(1,75)	(-6,61)	(20,18)	(-1,50)	(4,88)	(89,31)	(13,57)	(8,35)	(-3,47)	(9,38)	(-19,16)	(2,43)	(-2,39)	
L1D 0>	(0,50)	(1,97)	(7,1)	(2,27)	(17,1)	(-14,1)	(97,0)	(-42,0)	(23,0)	(-7,2)	(88,13)	(4,0)	(-144,0)	(-10,0)	(-176,1)	(-53,0)	
L1D 1>	(2,2)	(9,0)	(-36,0)	(87,0)	(42,0)	(6,1)	(15,0)	(1,60)	(-6,0)	(-1,1)	(-2,0)	(-7,0)	(13,1)	(0,96)	(-3,0)	(3,0)	
L1D 2>	(-135,2)	(11,3)	(2,81)	(4,32)	(-2,11)	(8,4)	(-3,6)	(1,39)	(6,12)	(-14,7)	(-10,3)	(0,89)	(-1,5)	(-41,1)	(-9,1)	(5,2)	
L1D 3>	(114,1)	(4,3)	(-7,11)	(13,18)	(0,95)	(6,11)	(-3,13)	(9,5)	(-4,9)	(-11,9)	(12,4)	(-20,7)	(-8,7)	(5,7)	(17,26)	(1,19)	
L1D 4>	(-34,1)	(5,78)	(4,125)	(-35,7)	(-17,26)	(2,76)	(8,20)	(6,18)	(-12,21)	(-24,6)	(-6,9)	(-4,15)	(9,81)	(-46,11)	(0,24)	(-3,14)	
L1D 5>	(-10,1)	(-122,6)	(-4,17)	(-31,6)	(4,101)	(35,32)	(40,10)	(9,108)	(5,21)	(-37,14)	(-9,4)	(44,6)	(-5,28)	(1,5)	(-7,11)	(31,8)	
L1D 6>	(14,13)	(3,3)	(12,1)	(8,10)	(1,68)	(26,1)	(-96,1)	(6,14)	(11,7)	(4,17)	(123,6)	(-10,3)	(-34,3)	(21,6)	(2,96)	(-6,7)	
L1D 7>	(0,62)	(2,1)	(-11,12)	(11,11)	(3,20)	(-1,41)	(1,114)	(-7,36)	(9,27)	(-42,8)	(13,28)	(4,49)	(-52,15)	(-4,47)	(-10,44)	(-5,22)	
L1D 8>	(2,41)	(1,72)	(0,14)	(8,61)	(47,1)	(43,22)	(-9,2)	(-12,9)	(-36,4)	(6,27)	(-97,1)	(-10,5)	(11,6)	(-6,1)	(-207,4)	(4,45)	
L1D 9>	(-12,5)	(4,32)	(-18,14)	(40,7)	(-21,8)	(5,25)	(-16,7)	(-22,46)	(9,97)	(-26,8)	(-17,20)	(-31,24)	(31,1)	(-35,8)	(-13,12)	(-10,3)	
L1D 10>	(4,22)	(38,1)	(0,53)	(6,7)	(-9,115)	(-10,58)	(-8,5)	(-15,6)	(8,2)	(3,15)	(-13,9)	(-6,6)	(2,13)	(-12,2)	(1,4)	(-11,22)	
L1D 11>	(-10,24)	(0,38)	(-9,13)	(-15,7)	(5,16)	(10,1)	(-18,13)	(-2,2)	(1,7)	(47,15)	(-20,5)	(-7,8)	(-14,3)	(23,23)	(36,28)	(-16,95)	
L1D 12>	(26,1)	(-14,8)	(8,2)	(-3,74)	(-4,30)	(-20,5)	(-2,12)	(4,5)	(0,7)	(-10,5)	(1,11)	(9,39)	(-12,6)	(5,7)	(-9,6)	(2,10)	
L1D 13>	(9,22)	(7,13)	(59,21)	(23,10)	(-34,53)	(20,45)	(-11,17)	(0,94)	(1,42)	(-36,16)	(-17,1)	(40,29)	(13,21)	(-18,23)	(-16,9)	(-32,5)	
L1D 14>	(151,1)	(2,10)	(0,70)	(4,4)	(-5,6)	(-8,8)	(-16,21)	(27,1)	(26,3)	(-9,2)	(-13,72)	(-14,3)	(9,5)	(-19,21)	(-15,4)	(23,15)	
L1D 15>	(-10,30)	(23,13)	(-26,30)	(-16,62)	(1,103)	(-15,14)	(16,17)	(18,103)	(-9,1)	(-12,23)	(2,48)	(-8,16)	(-5,38)	(0,55)	(-28,7)	(4,18)	
L1D 16>	(-15,8)	(-1,1)	(36,18)	(2,33)	(1,50)	(0,111)	(-10,3)	(59,37)	(-4,2)	(23,27)	(-11,36)	(332,11)	(14,9)	(47,80)	(72,5)	(-9,8)	
L1D 17>	(-20,10)	(4,41)	(0,32)	(-15,24)	(-2,1)	(2,37)	(-17,7)	(-10,36)	(-22,5)	(-23,6)	(-16,69)	(-11,93)	(-19,10)	(3,8)	(-13,55)	(-5,107)	
L1D 18>	(-11,54)	(-35,27)	(-6,2)	(-9,26)	(-18,5)	(-16,1)	(-19,33)	(36,3)	(17,1)	(-15,31)	(-61,4)	(2,113)	(0,54)	(72,40)	(-78,3)	(21,9)	
L1D 19>	(-80,3)	(0,41)	(-11,3)	(-18,14)	(-9,72)	(-24,4)	(-15,12)	(-1,26)	(-13,26)	(1,52)	(-12,9)	(72,7)	(-20,25)	(7,11)	(-19,37)	(-7,3)	
L1D 20>	(-16,110)	(-19,56)	(-18,4)	(-6,2)	(-20,21)	(0,10)	(6,4)	(-2,3)	(-22,2)	(-26,18)	(-21,4)	(8,2)	(-25,1)	(5,56)	(-1,1)	(-14,8)	
L1D 21>	(-16,14)	(-12,44)	(-99,11)	(-23,3)	(-26,4)	(7,10)	(-21,9)	(-17,6)	(-24,23)	(-19,2)	(-15,101)	(-2,9)	(11,6)	(-18,8)	(-3,1)	(-27,1)	
L1D 22>	(-108,42)	(-15,116)	(-16,82)	(-62,6)	(-33,14)	(0,24)	(306,29)	(-66,25)	(9,34)	(146,110)	(-8,7)	(-19,17)	(-22,5)	(-60,14)	(-21,1)	(4,25)	
L1D 23>	(4,108)	(-31,1)	(-20,4)	(-1,19)	(15,16)	(-17,2)	(-14,6)	(12,2)	(-23,12)	(-16,16)	(-15,4)	(-22,2)	(-33,2)	(-34,0)	(-32,11)	(-24,2)	
L1D 24>	(29,9)	(-9,1)	(-21,2)	(-18,1)	(-20,2)	(75,8)	(93,6)	(-13,1)	(-24,11)	(-15,92)	(9,4)	(146,14)	(32,7)	(1,1)	(48,1)	(0,5)	
L1D 25>	(13,5)	(-24,4)	(0,14)	(49,3)	(-27,60)	(2,4)	(12,4)	(-16,4)	(-13,4)	(-25,24)	(50,1)	(-18,70)	(-15,80)	(-3,1)	(-26,26)	(52,3)	
L1D 26>	(51,2)	(-24,3)	(-28,4)	(0,4)	(-7,2)	(-20,3)	(-4,2)	(-25,4)	(2,36)	(-15,89)	(6,2)	(-26,9)	(-40,15)	(-19,1)	(-9,2)	(52,22)	
L1D 27>	(9,3)	(-46,2)	(-28,5)	(-15,114)	(2,3)	(-27,9)	(54,2)	(-13,6)	(-35,5)	(-23,13)	(56,1)	(-50,4)	(0,1)	(-17,23)	(-9,2)	(-48,29)	
L1D 28>	(-13,6)	(-28,119)	(-14,41)	(-6,5)	(-54,21)	(-24,14)	(-80,5)	(4,28)	(28,22)	(17,12)	(13,3)	(-21,8)	(147,5)	(-27,53)	(8,9)	(58,1)	
L1D 29>	(-15,86)	(-36,1)	(24,0)	(-39,1)	(-28,12)	(-2,0)	(-246,0)	(-12,41)	(17,0)	(-278,1)	(0,0)	(1,1)	(-220,0)	(-31,16)	(10,0)	(58,0)	
L1D 30>	(-182,0)	(-33,73)	(-32,6)	(-13,9)	(4,40)	(93,8)	(-31,1)	(-23,1)	(14,1)	(-34,45)	(-2,4)	(26,0)	(-1,1)	(-26,0)	(75,8)	(41,5)	
L1D 31>	(62,0)	(-243,2)	(4,5)	(9,0)	(-82,0)	(-34,0)	(0,1)	(41,27)	(6,0)	(-202,0)	(-203,2)	(11,0)	(7,3)	(40,81)	(-324,1)	(-43,0)	
L1D 32>	(-26,5)	(-28,9)	(-56,0)	(-31,70)	(70,3)	(12,0)	(-7,0)	(-30,3)	(9,0)	(-36,0)	(40,0)	(-40,0)	(-34,1)	(0,0)	(4,0)	(-24,3)	
L1D 33>	(0,31)	(211,6)	(-31,8)	(-15,4)	(-7,64)	(80,1)	(-33,39)	(175,3)	(233,1)	(-27,1)	(-37,24)	(245,7)	(2,13)	(231,1)	(9,65)	(265,0)	
L1D 34>	(-36,74)	(68,1)	(5,0)	(70,0)	(-28,0)	(-266,0)	(-250,0)	(-8,7)	(-32,14)	(-13,0)	(-30,0)	(26,16)	(17,0)	(1,1)	(-33,93)	(29,0)	
L1D 35>	(41,99)	(-121,8)	(5,30)	(7,7)	(-81,8)	(9,0)	(4,5)	(-243,1)	(-116,0)	(-117,3)	(0,35)	(-115,1)	(-34,54)	(-324,1)	(-202,25)	(40,31)	
L1D 36>	(-38,3)	(4,75)	(2,11)	(-30,7)	(-45,1)	(-32,23)	(-35,34)	(0,3)	(-34,20)	(-7,5)	(-37,1)	(-36,10)	(-21,2)	(-43,5)	(-31,4)	(40,89)	
L1D 37>	(-35,123)	(-99,1)	(-34,1)	(-23,1)	(79,0)	(0,2)	(159,5)	(-45,0)	(41,0)	(40,0)	(-1,0)	(4,0)	(-38,7)	(-40,0)	(2,0)	(23,0)	
L1D 38>	(0,66)	(-30,10)	(-121,1)	(41,20)	(-44,2)	(-49,1)	(1,25)	(-98,11)	(52,7)	(5,3)	(40,18)	(12,9)	(-2,50)	(386,1)	(4,3)	(15,12)	
L1D 39>	(9,3)	(4,17)	(-202,3)	(-49,5)	(11,97)	(-30,12)	(-40,76)	(40,126)	(1,16)	(2,3)	(-21,36)	(-99,23)	(-2,3)	(41,65)	(-9,19)	(-3,4)	
L1D 40>	(41,88)	(5,6)	(-162,1)	(-202,0)	(14,0)	(386,0)	(-121,0)	(-243,3)	(0,2)	(-161,0)	(40,4)	(9,3)	(-175,0)	(-242,0)	(-40,2)	(-323,0)	
L1D 41>	(40,126)	(4,24)	(-189,1)	(-284,4)	(-45,1)	(0,1)	(-243,1)	(12,1)	(-122,4)	(7,1)	(-44,1)	(-324,4)	(-43,3)	(-161,1)	(-81,4)	(9,5)	
L1D 42>	(-48,1)	(6,0)	(2,1)	(-45,1)	(1,2)	(4,0)	(-46,0)	(83,0)	(5,0)	(-41,8)	(3,0)	(-42,119)	(-43,0)	(-6,0)	(0,3)	(67,0)	
L1D 43>	(86,0)	(5,0)	(1,2)	(-43,0)	(-42,116)	(17,0)	(85,0)	(2,0)	(-41,0)	(11,0)	(0,11)	(-54,0)	(-20,0)	(-1,0)	(-2,0)	(67,0)	
L1D 44>	(-115,1)	(24,0)	(-118,0)	(8,1)	(40,33)	(0,1)	(41,21)	(1,1)	(18,3)	(2,6)	(5,5)	(11,1)	(-6,0)	(-39,6)	(-45,3)	(-42,84)	
L1D 45>	(4,85)	(-9,9)	(-41,2)	(-31,3)	(-1,6)	(8,5)	(-44,2)	(40,16)	(89,0)	(0,48)	(11,3)	(-3,4)	(5,1)	(-119,3)	(10,0)	(27,0)	
L1D 46>	(-114,0)	(91,1)	(0,1)	(-45,43)	(-36,0)	(-10,0)	(26,67)	(4,5)	(-55,1)	(-51,1)	(2,0)	(-43,5)	(-32,11)	(-46,2)	(47,2)	(-42,63)	
L1D 47>	(4,43)	(-34,11)	(-46,127)	(-4,19)	(0,3)	(-45,18)	(-44,2)	(-36,6)	(-31,10)	(2,67)	(-49,1)	(6,5)	(-47,119)	(-37,12)	(-43,12)	(-30,42)	
L1D 48>	(-46,0)	(-11,0)	(14,0)	(-2,0)	(-49,1)	(-42,69)	(-48,2)	(-1,4)	(1,4)	(0,7)	(2,1)	(4,0)	(6,0)	(15,2)	(3,0)	(-93,0)	
L1D 49>	(4,105)	(40,1)	(-48,49)	(-78,1)	(-45,32)	(-57,17)	(-49,3)	(98,2)	(-42,45)	(-41,51)	(5,3)	(9,1)	(-46,39)	(-43,58)	(1,1)	(-50,23)	
L1D 50>	(2,6)	(-42,2)	(100,2)	(-49,0)	(-110,3)	(-36,67)	(-48,11)	(21,28)	(-44,0)	(4,0)	(-2,5)	(1,0)	(99,2)	(-50,4)	(-7,6)	(-12,4)	
L1D 51>	(-5,21)	(1,1)	(4,0)	(-54,73)	(5,0)	(101,0)	(40,0)	(-37,0)	(-32,3)	(-34,1)	(-51,1)	(-36,0)	(-11,1)	(13,0)	(-35,75)	(104,8)	
L1D 52>	(28,4)	(103,7)	(-42,38)	(-62,3)	(-55,18)	(0,7)	(1,6)	(-35,3)	(-34,1)	(104,69)	(-36,2)	(-51,6)	(4,14)	(2,1)	(-52,1)	(-23,6)	
L1D 53>	(-40,1)	(-62,1)	(170,1)	(-146,1)	(-137,0)	(4,14)	(0,0)	(-54,8)	(57,0)	(5,5)	(106,1)	(-52,82)	(-53,0)	(-49,0)	(65,0)	(-36,1)	
L1D 54>	(162,11)	(-71,27)	(108,11)	(2,3)	(-64,12)	(-33,3)	(-54,7)	(-57,4)	(-36,43)	(-24,3)	(4,101)	(-47,17)	(-14,54)	(-13,13)	(107,1)	(5,3)	
L1D 55>	(-36,2)	(4,1)	(109,1)	(-78,2)	(-74,0)	(-55,80)	(1,0)	(-63,3)	(0,0)	(110,1)	(-34,1)	(13,6)	(-2,0)	(202,0)	(-76,11)	(-35,0)	
L1D 56>	(-48,109)	(-55,28)	(0,8)	(-49,1)	(-2,0)	(4,5)	(-58,2)	(-56,14)	(-11,2)	(-57,0)	(2,0)	(-10,0)	(84,0)	(-40,0)	(-28,0)	(112,0)	
L1D 57>	(-57,14)	(-27,0)	(-47,55)	(114,0)	(-23,11)	(-40,4)	(2,64)	(13,0)	(-39,2)	(-78,3)	(-48,7)	(-75,2)	(-80,0)	(-45,0)	(0,0)	(6,0)	
L1D 58>	(-45,1)	(-62,2)	(-1,1)	(170,5)	(-24,1)	(4,8)	(-56,18)	(115,1)	(-47,102)	(-57,2)	(-27,1)	(-58,1)	(116,0)	(1,0)	(-22,0)	(-11,4)	
L1D 59>	(4,52)	(2,1)	(-45,0)	(-56,95)	(6,1)	(-44,1)	(-58,49)	(-40,0)	(-47,0)	(-60,14)	(5,0)	(-48,71)	(-63,0)	(-51,0)	(-68,0)	(49,0)	
L1D 60>	(39,66)	(-60,85)	(38,38)	(18,34)	(2,1)	(-61,34)	(29,0)	(-44,1)	(-54,0)	(321,1)	(-352,1)	(0,4)	(20,0)	(-47,0)	(5,0)	(-59,0)	
L1D 61>	(124,0)	(0,19)	(-62,85)	(-60,7)	(2,0)	(39,1)	(38,2)	(-47,0)	(-69,0)	(18,0)	(-25,0)	(-61,0)	(1,0)	(-6,0)	(5,0)	(37,0)	
L1D 62>	(124,1)	(-47,19)	(196,85)	(37,7)	(-94,1)	(0,10)	(2,1)	(172,0)	(-61,0)	(20,0)	(-6,0)	(40,0)	(166,0)	(-20,0)	(-11,0)	(-62,0)	
L1D 63>	(126,0)	(-40,4)	(0,11)	(1,0)	(-4,0)	(-64,0)	(-128,0)	(2,51)	(15,0)	(-61,4)	(-54,0)	(-47,102)	(-45,12)	(-44,4)	(-63,0)	(-18,4)	
L1D 64>	(-1,1)	(-11,80)	(0,7)	(130,0)	(-68,0)	(2,0)	(280,0)	(-6,0)	(-20,0)	(-42,0)	(-57,0)	(5,0)	(1,6)	(19,0)	(48,0)	(-73,0)	
L1D 65>	(-67,76)	(-28,1)	(129,0)	(24,0)	(2,0)	(0,3)	(5,0)	(130,0)	(-74,0)	(-70,5)	(-18,0)	(1,0)	(1,0)	(1,0)	(1,0)	(1,0)	
L1D 66>	(-68,51)	(4,78)	(-69,72)	(-70,7)	(-67,5)	(1,0)	(-72,0)	(131,0)	(-59,0)	(40,0)	(182,0)	(-66,1)	(280,0)	(194,0)	(-65,0)	(-6,0)	
L1D 67>	(4,86)	(-79,7)	(-114,6)	(-70,8)	(-110,70)	(0,2)	(-67,64)	(-73,1)	(13,47)	(-68,69)	(-71,2)	(-77,41)	(-78,79)	(-76,3)	(-64,2)	(-75,4)	
L1D 68>	(-62,69)	(-67,107)	(-304,1)	(114,14)	(0,2)	(-234,0)	(135,0)	(146,0)	(136,1)	(-70,10)	(5,0)	(-1,0)	(6,0)	(164,0)	(-91,0)	(82,0)	
L1D 69>	(-1,1)	(0,1)	(1,1)	(138,1)	(-2,0)	(15,0)	(-25,0)	(3,4)	(-69,0)	(-67,78)	(46,2)	(-306,0)	(-4,0)	(68,0)	(4,4)	(93,2)	
L1D 70>	(-19,2)	(7,75)	(0,10)	(138,1)	(152,4)	(-157,1)	(-1,1)	(-40,30)	(-70,4)	(140,3)	(9,9)	(6,110)	(142,1)	(-31,0)	(-148,0)	(-139,0)	
L1D 71>	(4,3)	(-68,2)	(93,1)	(81,0)	(46,2)	(17,0)	(-70,68)	(5,0)	(-4,1)	(-243,0)	(-40,4)	(41,0)	(0,0)	(-71,0)	(3,0)	(-67,0)	
L1D 72>	(4,94)	(0,4)	(-72,1)	(-76,6)	(144,1)	(-73,12)	(-68,66)	(-71,120)	(-70,20)	(2,7)	(142,0)	(-67,31)	(146,0)	(-66,111)	(20,0)	(-74,26)	
L1D 73>	(0,9)	(5,1)	(-82,99)	(2,0)	(-71,0)	(-166,0)	(4,4)	(1,4)	(-6,0)	(-37,0)	(-75,0)	(-74,5)	(146,0)	(-73,0)	(145,1)	(-19,0)	
L1D 74>	(-1,1)	(9,2)	(-78,0)	(0,42)	(-74,1)	(-73,0)	(148,1)	(-6,0)	(-52,0)	(94,0)	(-20,0)	(-72,1)	(-77,1)	(2,99)	(18,0)	(-40,0)	
L1D 75>	(150,1)	(5,1)	(0,20)	(-74,30)	(-75,9)	(-72,3)	(17,1)	(1,3)	(16,126)	(2,14)	(4,3)	(38,0)	(68,1)	(-42,0)	(18,1)	(3,0)	
L1D 76>	(-82,14)	(-30,9)	(-2,17)	(40,44)	(-77,43)	(-78,15)	(0,56)	(4,41)	(-4,12)	(-36,10)	(80,1)	(-75,51)	(3,6)	(41,27)	(5,12)	(-1,103)	
L1D 77>	(-79,69)	(-86,1)	(17,0)	(-80,3)	(80,1)	(4,36)	(-81,7)	(-1,0)	(-78,16)	(-36,0)	(2,0)	(-76,3)	(28,0)	(104,0)	(-73,0)	(5,0)	
[...]
L1D 478>	(0,1)	(1,1)	(-10,1)	(1,0)	(1,0)	(1,0)	(1,0)	(1,0)	(1,0)	(1,0)	(1,0)	(1,0)	(1,0)	(1,0)	(1,0)	(1,0)	
L1D 479>	(4,5)	(0,3)	(1,0)	(1,0)	(1,0)	(1,0)	(1,0)	(1,0)	(1,0)	(1,0)	(1,0)	(1,0)	(1,0)	(1,0)	(1,0)	(1,0)	
L1D 480>	(1,1)	(-10,1)	(-479,1)	(1,0)	(1,0)	(1,0)	(1,0)	(1,0)	(1,0)	(1,0)	(1,0)	(1,0)	(1,0)	(1,0)	(1,0)	(1,0)	
L1D 481>	(3,3)	(4,6)	(-232,1)	(0,1)	(1,0)	(1,0)	(1,0)	(1,0)	(1,0)	(1,0)	(1,0)	(1,0)	(1,0)	(1,0)	(1,0)	(1,0)	
L1D 482>	(4,3)	(1,1)	(0,2)	(1,0)	(1,0)	(1,0)	(1,0)	(1,0)	(1,0)	(1,0)	(1,0)	(1,0)	(1,0)	(1,0)	(1,0)	(1,0)	
L1D 483>	(5,1)	(4,9)	(-470,1)	(0,1)	(1,0)	(1,0)	(1,0)	(1,0)	(1,0)	(1,0)	(1,0)	(1,0)	(1,0)	(1,0)	(1,0)	(1,0)	
L1D 484>	(1,2)	(5,1)	(0,1)	(4,1)	(1,0)	(1,0)	(1,0)	(1,0)	(1,0)	(1,0)	(1,0)	(1,0)	(1,0)	(1,0)	(1,0)	(1,0)	
L1D 485>	(4,4)	(0,3)	(-448,1)	(1,1)	(1,0)	(1,0)	(1,0)	(1,0)	(1,0)	(1,0)	(1,0)	(1,0)	(1,0)	(1,0)	(1,0)	(1,0)	
L1D 486>	(0,1)	(1,0)	(1,0)	(1,0)	(1,0)	(1,0)	(1,0)	(1,0)	(1,0)	(1,0)	(1,0)	(1,0)	(1,0)	(1,0)	(1,0)	(1,0)	
L1D 487>	(4,7)	(-256,1)	(3,3)	(1,0)	(1,0)	(1,0)	(1,0)	(1,0)	(1,0)	(1,0)	(1,0)	(1,0)	(1,0)	(1,0)	(1,0)	(1,0)	
L1D 488>	(5,1)	(-92,1)	(1,0)	(1,0)	(1,0)	(1,0)	(1,0)	(1,0)	(1,0)	(1,0)	(1,0)	(1,0)	(1,0)	(1,0)	(1,0)	(1,0)	
L1D 489>	(4,1)	(1,0)	(1,0)	(1,0)	(1,0)	(1,0)	(1,0)	(1,0)	(1,0)	(1,0)	(1,0)	(1,0)	(1,0)	(1,0)	(1,0)	(1,0)	
L1D 490>	(-1,1)	(1,2)	(-490,1)	(0,2)	(1,0)	(1,0)	(1,0)	(1,0)	(1,0)	(1,0)	(1,0)	(1,0)	(1,0)	(1,0)	(1,0)	(1,0)	
L1D 491>	(4,1)	(1,0)	(1,0)	(1,0)	(1,0)	(1,0)	(1,0)	(1,0)	(1,0)	(1,0)	(1,0)	(1,0)	(1,0)	(1,0)	(1,0)	(1,0)	
L1D 492>	(0,1)	(-492,1)	(1,0)	(1,0)	(1,0)	(1,0)	(1,0)	(1,0)	(1,0)	(1,0)	(1,0)	(1,0)	(1,0)	(1,0)	(1,0)	(1,0)	
L1D 493>	(1,0)	(1,0)	(1,0)	(1,0)	(1,0)	(1,0)	(1,0)	(1,0)	(1,0)	(1,0)	(1,0)	(1,0)	(1,0)	(1,0)	(1,0)	(1,0)	
L1D 494>	(-144,1)	(1,2)	(0,1)	(1,0)	(1,0)	(1,0)	(1,0)	(1,0)	(1,0)	(1,0)	(1,0)	(1,0)	(1,0)	(1,0)	(1,0)	(1,0)	
L1D 495>	(0,2)	(4,1)	(1,0)	(1,0)	(1,0)	(1,0)	(1,0)	(1,0)	(1,0)	(1,0)	(1,0)	(1,0)	(1,0)	(1,0)	(1,0)	(1,0)	
L1D 496>	(1,0)	(1,0)	(1,0)	(1,0)	(1,0)	(1,0)	(1,0)	(1,0)	(1,0)	(1,0)	(1,0)	(1,0)	(1,0)	(1,0)	(1,0)	(1,0)	
L1D 497>	(4,3)	(1,0)	(1,0)	(1,0)	(1,0)	(1,0)	(1,0)	(1,0)	(1,0)	(1,0)	(1,0)	(1,0)	(1,0)	(1,0)	(1,0)	(1,0)	
L1D 498>	(4,1)	(0,1)	(1,0)	(1,0)	(1,0)	(1,0)	(1,0)	(1,0)	(1,0)	(1,0)	(1,0)	(1,0)	(1,0)	(1,0)	(1,0)	(1,0)	
L1D 499>	(0,1)	(1,0)	(1,0)	(1,0)	(1,0)	(1,0)	(1,0)	(1,0)	(1,0)	(1,0)	(1,0)	(1,0)	(1,0)	(1,0)	(1,0)	(1,0)	
L1D 500>	(5,1)	(4,1)	(1,0)	(1,0)	(1,0)	(1,0)	(1,0)	(1,0)	(1,0)	(1,0)	(1,0)	(1,0)	(1,0)	(1,0)	(1,0)	(1,0)	
L1D 501>	(-491,1)	(1,1)	(4,1)	(1,0)	(1,0)	(1,0)	(1,0)	(1,0)	(1,0)	(1,0)	(1,0)	(1,0)	(1,0)	(1,0)	(1,0)	(1,0)	
L1D 502>	(-10,1)	(-254,1)	(0,1)	(1,0)	(1,0)	(1,0)	(1,0)	(1,0)	(1,0)	(1,0)	(1,0)	(1,0)	(1,0)	(1,0)	(1,0)	(1,0)	
L1D 503>	(4,1)	(1,0)	(1,0)	(1,0)	(1,0)	(1,0)	(1,0)	(1,0)	(1,0)	(1,0)	(1,0)	(1,0)	(1,0)	(1,0)	(1,0)	(1,0)	
L1D 504>	(1,0)	(1,0)	(1,0)	(1,0)	(1,0)	(1,0)	(1,0)	(1,0)	(1,0)	(1,0)	(1,0)	(1,0)	(1,0)	(1,0)	(1,0)	(1,0)	
L1D 505>	(1,0)	(1,0)	(1,0)	(1,0)	(1,0)	(1,0)	(1,0)	(1,0)	(1,0)	(1,0)	(1,0)	(1,0)	(1,0)	(1,0)	(1,0)	(1,0)	
L1D 506>	(1,0)	(1,0)	(1,0)	(1,0)	(1,0)	(1,0)	(1,0)	(1,0)	(1,0)	(1,0)	(1,0)	(1,0)	(1,0)	(1,0)	(1,0)	(1,0)	
L1D 507>	(1,0)	(1,0)	(1,0)	(1,0)	(1,0)	(1,0)	(1,0)	(1,0)	(1,0)	(1,0)	(1,0)	(1,0)	(1,0)	(1,0)	(1,0)	(1,0)	
L1D 508>	(1,0)	(1,0)	(1,0)	(1,0)	(1,0)	(1,0)	(1,0)	(1,0)	(1,0)	(1,0)	(1,0)	(1,0)	(1,0)	(1,0)	(1,0)	(1,0)	
L1D 509>	(1,0)	(1,0)	(1,0)	(1,0)	(1,0)	(1,0)	(1,0)	(1,0)	(1,0)	(1,0)	(1,0)	(1,0)	(1,0)	(1,0)	(1,0)	(1,0)	
L1D 510>	(0,1)	(1,0)	(1,0)	(1,0)	(1,0)	(1,0)	(1,0)	(1,0)	(1,0)	(1,0)	(1,0)	(1,0)	(1,0)	(1,0)	(1,0)	(1,0)	
L1D 511>	(1,0)	(1,0)	(1,0)	(1,0)	(1,0)	(1,0)	(1,0)	(1,0)	(1,0)	(1,0)	(1,0)	(1,0)	(1,0)	(1,0)	(1,0)	(1,0)	

L2C -64>	(1,151)	(-1,54)	(2,34)	(10,8)	(5,15)	(-2,64)	(9,4)	(-3,15)	(3,11)	(-29,1)	(6,5)	(-16,4)	(0,10)	(4,6)	(7,7)	(11,7)	
L2C -63>	(12,1)	(10,1)	(2,10)	(18,1)	(1,251)	(4,9)	(14,1)	(0,1)	(50,1)	(13,1)	(40,0)	(29,0)	(3,20)	(6,0)	(5,1)	(1,0)	
L2C -62>	(5,2)	(34,1)	(1,139)	(9,2)	(3,10)	(13,2)	(4,8)	(18,1)	(0,1)	(42,1)	(-1,2)	(62,1)	(25,1)	(2,8)	(14,1)	(12,1)	
L2C -61>	(1,85)	(3,8)	(7,2)	(4,16)	(27,1)	(42,1)	(17,1)	(5,19)	(22,1)	(2,2)	(13,3)	(10,2)	(9,3)	(33,1)	(14,4)	(28,3)	
L2C -60>	(2,10)	(1,93)	(14,2)	(44,2)	(10,3)	(30,1)	(11,5)	(45,3)	(55,1)	(0,2)	(-1,4)	(4,9)	(3,2)	(-2,1)	(57,1)	(58,2)	
L2C -59>	(14,2)	(1,75)	(2,6)	(13,2)	(43,4)	(11,3)	(42,1)	(-1,3)	(39,1)	(33,1)	(0,1)	(7,1)	(21,1)	(5,1)	(3,2)	(4,5)	
L2C -58>	(3,3)	(-5,3)	(1,41)	(11,21)	(34,2)	(4,3)	(44,1)	(-1,5)	(0,1)	(12,1)	(13,1)	(45,2)	(57,2)	(2,6)	(20,1)	(5,6)	
L2C -57>	(11,49)	(1,40)	(-5,7)	(5,8)	(3,3)	(47,3)	(33,3)	(9,13)	(6,3)	(58,2)	(57,3)	(35,2)	(22,5)	(2,4)	(55,2)	(25,1)	
L2C -56>	(33,4)	(1,12)	(11,198)	(19,1)	(10,3)	(4,1)	(9,5)	(22,35)	(18,1)	(-5,1)	(5,1)	(8,1)	(2,0)	(-1,1)	(43,0)	(48,0)	
L2C -55>	(1,58)	(10,46)	(-1,21)	(3,9)	(11,5)	(2,7)	(-5,3)	(14,4)	(0,2)	(50,2)	(21,6)	(19,2)	(4,1)	(7,3)	(-7,1)	(-4,2)	
L2C -54>	(1,41)	(49,6)	(11,5)	(-5,3)	(9,4)	(3,6)	(46,8)	(7,5)	(5,4)	(41,7)	(30,3)	(6,7)	(-1,12)	(4,3)	(36,1)	(18,1)	
L2C -53>	(1,54)	(49,6)	(6,6)	(-5,5)	(50,2)	(8,2)	(-2,1)	(48,3)	(-3,3)	(2,6)	(63,1)	(20,2)	(53,1)	(14,3)	(11,8)	(18,4)	
L2C -52>	(51,8)	(53,3)	(4,3)	(1,60)	(11,7)	(14,4)	(-1,5)	(0,2)	(28,2)	(9,2)	(7,2)	(55,3)	(50,6)	(2,4)	(-8,1)	(22,1)	
L2C -51>	(1,51)	(2,5)	(-1,7)	(22,1)	(13,1)	(52,15)	(37,1)	(44,2)	(21,1)	(45,2)	(7,2)	(11,6)	(51,3)	(-10,2)	(20,1)	(3,6)	
L2C -50>	(40,2)	(1,59)	(-9,2)	(11,5)	(4,6)	(51,5)	(10,3)	(-5,3)	(2,4)	(49,3)	(45,2)	(14,2)	(48,1)	(5,2)	(-1,3)	(47,1)	
L2C -49>	(2,8)	(17,1)	(6,3)	(43,2)	(10,3)	(50,4)	(1,50)	(29,3)	(4,6)	(0,4)	(34,4)	(51,6)	(11,7)	(-1,2)	(-2,4)	(8,8)	
L2C -48>	(1,46)	(50,3)	(5,10)	(-4,2)	(39,2)	(3,3)	(13,1)	(16,3)	(7,3)	(11,14)	(-1,11)	(45,2)	(49,5)	(-2,2)	(55,1)	(-7,3)	
L2C -47>	(7,3)	(14,5)	(1,51)	(11,18)	(13,1)	(48,5)	(50,2)	(8,8)	(12,3)	(-9,1)	(20,1)	(0,1)	(15,4)	(6,5)	(43,1)	(31,1)	
L2C -46>	(12,6)	(7,8)	(1,71)	(2,6)	(11,51)	(48,4)	(-17,2)	(17,1)	(3,8)	(8,4)	(42,5)	(-1,15)	(10,1)	(18,2)	(9,6)	(49,2)	
L2C -45>	(1,11)	(11,128)	(2,1)	(50,0)	(48,0)	(52,0)	(42,1)	(-9,0)	(7,0)	(5,2)	(22,14)	(-6,0)	(8,1)	(-5,0)	(33,1)	(-1,3)	
L2C -44>	(14,5)	(1,47)	(21,3)	(-1,18)	(44,19)	(5,6)	(48,1)	(34,2)	(-12,1)	(2,25)	(7,7)	(8,5)	(10,66)	(-4,1)	(-11,14)	(11,14)	
L2C -43>	(1,76)	(4,7)	(47,6)	(33,5)	(23,4)	(2,22)	(11,18)	(40,3)	(36,3)	(7,4)	(26,2)	(5,14)	(44,3)	(-1,12)	(24,1)	(46,2)	
L2C -42>	(40,2)	(1,55)	(45,8)	(3,6)	(5,7)	(24,2)	(-1,9)	(-3,4)	(0,2)	(42,2)	(4,5)	(2,28)	(15,2)	(48,2)	(6,2)	(-11,1)	
L2C -41>	(2,19)	(3,8)	(-2,5)	(6,3)	(7,4)	(1,62)	(42,9)	(43,49)	(-5,4)	(-7,6)	(4,7)	(37,3)	(12,1)	(-8,2)	(9,12)	(11,5)	
L2C -40>	(1,67)	(-1,11)	(13,2)	(11,6)	(39,4)	(42,8)	(7,6)	(10,3)	(41,5)	(3,12)	(43,13)	(52,3)	(20,4)	(44,2)	(2,34)	(5,30)	
L2C -39>	(-1,4)	(2,37)	(5,15)	(1,155)	(-3,1)	(40,9)	(18,7)	(39,25)	(3,11)	(4,7)	(0,17)	(12,2)	(14,3)	(9,5)	(22,3)	(11,3)	
L2C -38>	(3,17)	(4,11)	(1,140)	(2,26)	(12,5)	(19,5)	(9,3)	(-1,7)	(7,4)	(5,30)	(36,7)	(11,10)	(51,2)	(-6,2)	(31,3)	(-11,1)	
L2C -37>	(1,68)	(-1,32)	(5,17)	(20,1)	(3,9)	(41,2)	(2,45)	(38,6)	(40,14)	(0,6)	(-2,5)	(-10,2)	(33,8)	(17,5)	(-8,2)	(-3,2)	
L2C -36>	(1,97)	(-5,8)	(33,1)	(27,10)	(5,30)	(36,11)	(3,22)	(10,8)	(0,5)	(12,2)	(2,33)	(40,5)	(11,31)	(6,5)	(4,8)	(-1,11)	
L2C -35>	(1,105)	(2,25)	(48,1)	(3,19)	(-12,2)	(5,21)	(-1,6)	(11,34)	(27,2)	(10,7)	(42,2)	(8,7)	(9,2)	(33,21)	(12,2)	(6,3)	
L2C -34>	(1,89)	(11,249)	(22,36)	(40,1)	(0,3)	(3,18)	(30,2)	(-1,19)	(4,2)	(2,20)	(5,15)	(9,4)	(35,4)	(-2,9)	(8,7)	(33,21)	
L2C -33>	(-1,28)	(20,11)	(10,48)	(2,66)	(36,1)	(1,106)	(-11,5)	(6,5)	(32,3)	(33,36)	(3,23)	(-4,7)	(5,36)	(44,2)	(38,5)	(11,23)	
L2C -32>	(18,6)	(-1,22)	(5,19)	(1,110)	(2,79)	(40,5)	(3,36)	(9,4)	(33,5)	(-8,1)	(49,2)	(10,7)	(8,6)	(25,2)	(-5,4)	(39,2)	
L2C -31>	(1,104)	(2,52)	(3,34)	(10,6)	(5,50)	(-1,28)	(32,6)	(7,1)	(14,2)	(50,1)	(33,4)	(12,2)	(-5,8)	(38,1)	(48,2)	(-3,5)	
L2C -30>	(1,107)	(-1,10)	(11,11)	(45,3)	(2,41)	(9,4)	(40,1)	(29,4)	(16,3)	(10,8)	(5,24)	(3,23)	(33,3)	(31,9)	(32,5)	(18,7)	
L2C -29>	(0,5)	(1,171)	(-1,28)	(33,4)	(2,65)	(-12,1)	(5,40)	(10,16)	(11,16)	(9,14)	(3,26)	(34,5)	(6,5)	(36,3)	(20,6)	(28,4)	
L2C -28>	(1,145)	(19,6)	(14,4)	(5,32)	(33,23)	(-5,6)	(0,4)	(29,13)	(24,1)	(2,60)	(20,3)	(11,11)	(4,14)	(3,27)	(-1,32)	(34,6)	
L2C -27>	(1,94)	(4,13)	(28,6)	(5,24)	(-10,11)	(10,6)	(17,4)	(2,63)	(-5,7)	(3,46)	(0,6)	(48,2)	(-11,7)	(12,2)	(13,8)	(-1,25)	
L2C -26>	(-2,11)	(29,1)	(-1,22)	(11,7)	(1,53)	(-8,9)	(2,92)	(4,16)	(3,21)	(5,53)	(10,6)	(-11,4)	(13,8)	(23,3)	(9,5)	(14,7)	
L2C -25>	(27,5)	(-1,27)	(13,8)	(11,30)	(1,117)	(5,27)	(-9,3)	(-12,5)	(2,19)	(26,8)	(15,1)	(17,7)	(10,13)	(19,4)	(14,3)	(-26,1)	
L2C -24>	(1,145)	(-5,10)	(11,27)	(2,24)	(9,12)	(15,7)	(6,5)	(10,16)	(-6,1)	(-1,29)	(3,23)	(5,63)	(25,11)	(12,6)	(16,4)	(28,2)	
L2C -23>	(1,56)	(15,3)	(-1,9)	(19,2)	(4,8)	(5,16)	(22,13)	(11,140)	(2,6)	(24,3)	(12,1)	(-6,1)	(52,1)	(21,3)	(10,3)	(3,6)	
L2C -22>	(1,123)	(24,21)	(-4,15)	(8,7)	(2,22)	(21,10)	(-2,2)	(3,19)	(5,34)	(-3,4)	(15,8)	(33,11)	(-1,24)	(9,5)	(10,92)	(11,16)	
L2C -21>	(3,24)	(5,47)	(-1,35)	(1,115)	(22,11)	(9,9)	(2,86)	(23,7)	(-18,1)	(-11,9)	(15,13)	(19,12)	(-7,4)	(17,24)	(8,5)	(6,5)	
L2C -20>	(5,31)	(-1,16)	(1,110)	(2,24)	(3,16)	(17,8)	(22,3)	(15,4)	(11,9)	(10,11)	(39,3)	(-3,1)	(-4,14)	(12,6)	(0,7)	(4,2)	
L2C -19>	(1,137)	(-1,31)	(8,15)	(30,4)	(20,15)	(2,34)	(-3,11)	(-7,4)	(5,95)	(21,9)	(-2,13)	(3,25)	(6,4)	(14,1)	(33,2)	(15,9)	
L2C -18>	(3,19)	(16,28)	(1,247)	(28,1)	(19,86)	(4,19)	(2,53)	(6,5)	(0,6)	(8,4)	(-20,2)	(-2,28)	(-19,4)	(26,5)	(15,6)	(5,28)	
L2C -17>	(1,143)	(2,21)	(-15,0)	(18,44)	(-3,9)	(-5,6)	(3,4)	(19,20)	(30,2)	(28,3)	(13,2)	(-2,44)	(9,1)	(26,2)	(5,4)	(4,2)	
L2C -16>	(1,122)	(2,202)	(-3,8)	(22,6)	(3,158)	(0,37)	(10,1)	(-4,5)	(8,5)	(16,22)	(-1,22)	(-13,2)	(5,54)	(-10,3)	(11,4)	(18,17)	
L2C -15>	(1,171)	(-26,1)	(-3,7)	(4,17)	(19,7)	(2,30)	(7,8)	(15,4)	(5,49)	(28,6)	(16,12)	(3,16)	(14,5)	(20,8)	(11,12)	(47,2)	
L2C -14>	(-1,23)	(19,5)	(3,36)	(1,223)	(5,89)	(28,8)	(10,11)	(4,16)	(15,23)	(-5,10)	(25,8)	(11,31)	(-3,5)	(2,48)	(-15,1)	(17,9)	
L2C -13>	(1,158)	(-6,10)	(5,26)	(4,16)	(11,20)	(14,19)	(6,10)	(2,16)	(-7,8)	(10,6)	(0,1)	(-24,3)	(8,10)	(3,25)	(12,10)	(-1,17)	
L2C -12>	(8,10)	(1,105)	(-1,40)	(4,11)	(11,208)	(-3,8)	(10,9)	(3,8)	(21,1)	(20,4)	(5,34)	(2,18)	(13,16)	(16,7)	(9,13)	(23,5)	
L2C -11>	(-2,13)	(2,54)	(5,76)	(-1,64)	(10,95)	(1,190)	(33,10)	(22,19)	(-7,10)	(13,24)	(17,9)	(21,17)	(15,17)	(12,30)	(16,1)	(-11,36)	
L2C -10>	(1,210)	(-3,7)	(-9,11)	(2,20)	(5,66)	(3,25)	(0,24)	(-5,18)	(46,1)	(12,20)	(13,12)	(9,22)	(21,6)	(11,49)	(-1,59)	(26,4)	
L2C -9>	(-1,27)	(1,136)	(10,29)	(2,25)	(5,55)	(3,8)	(9,8)	(-3,7)	(18,6)	(8,13)	(14,10)	(4,7)	(6,2)	(-5,4)	(-11,4)	(11,1)	
L2C -8>	(1,200)	(2,31)	(3,20)	(9,38)	(6,18)	(10,36)	(11,7)	(18,4)	(4,19)	(-1,33)	(-30,1)	(5,97)	(22,10)	(26,3)	(0,15)	(7,23)	
L2C -7>	(1,193)	(2,25)	(10,20)	(8,49)	(5,37)	(-3,5)	(-1,37)	(-2,7)	(4,14)	(0,7)	(7,1)	(6,2)	(9,18)	(3,18)	(-7,2)	(22,3)	
L2C -6>	(1,245)	(3,42)	(11,13)	(-5,11)	(8,36)	(-1,85)	(22,39)	(9,24)	(2,56)	(12,14)	(5,67)	(15,1)	(7,121)	(10,20)	(4,26)	(20,14)	
L2C -5>	(-2,16)	(15,5)	(7,24)	(6,218)	(5,55)	(1,194)	(-4,9)	(3,31)	(9,8)	(4,18)	(-7,8)	(25,1)	(8,18)	(2,55)	(-1,74)	(0,18)	
L2C -4>	(1,176)	(2,71)	(-3,11)	(6,23)	(7,31)	(5,94)	(-1,75)	(0,17)	(18,8)	(3,37)	(4,56)	(-23,1)	(9,9)	(22,18)	(10,9)	(-4,3)	
L2C -3>	(1,162)	(-37,1)	(3,9)	(4,90)	(2,32)	(6,6)	(5,17)	(-2,13)	(-1,30)	(-3,6)	(0,24)	(28,3)	(22,12)	(8,3)	(7,7)	(-32,2)	
L2C -2>	(1,241)	(5,8)	(4,23)	(-2,4)	(-1,65)	(-3,9)	(30,4)	(-37,1)	(3,94)	(6,5)	(-4,7)	(2,49)	(39,1)	(-33,5)	(0,192)	(15,1)	
L2C -1>	(6,1)	(7,1)	(-1,103)	(-2,5)	(14,4)	(11,5)	(2,124)	(5,10)	(3,38)	(-3,7)	(4,4)	(10,10)	(-16,2)	(0,77)	(-4,5)	(1,197)	
L2C 0>	(1,88)	(-1,51)	(0,161)	(-2,6)	(39,1)	(3,4)	(50,1)	(-3,8)	(-4,4)	(38,1)	(16,1)	(-44,2)	(-6,1)	(2,5)	(5,2)	(-38,1)	
L2C 1>	(1,144)	(4,2)	(3,2)	(-59,1)	(-15,1)	(2,6)	(-3,1)	(-34,0)	(-2,1)	(0,0)	(-16,0)	(18,1)	(-11,0)	(-4,0)	(-1,1)	(10,0)	
L2C 2>	(1,249)	(4,6)	(2,22)	(6,3)	(5,8)	(20,2)	(0,1)	(-7,2)	(3,10)	(-1,101)	(-3,15)	(9,4)	(-36,1)	(18,26)	(-4,4)	(-2,10)	
L2C 3>	(1,157)	(-4,3)	(5,9)	(-1,27)	(0,2)	(18,5)	(-2,9)	(4,2)	(3,9)	(2,23)	(19,9)	(-3,9)	(-7,2)	(15,1)	(-6,1)	(-15,1)	
L2C 4>	(1,219)	(-6,5)	(4,9)	(5,12)	(3,19)	(0,6)	(21,2)	(-1,14)	(-4,50)	(2,43)	(-3,21)	(-23,1)	(18,4)	(-5,8)	(-7,8)	(-2,7)	
L2C 5>	(-1,9)	(5,183)	(-6,4)	(-4,10)	(10,18)	(-5,11)	(-32,3)	(-22,1)	(-34,3)	(6,7)	(-35,1)	(11,1)	(2,5)	(1,32)	(-21,2)	(-36,1)	
L2C 6>	(5,75)	(1,196)	(4,7)	(-5,75)	(2,21)	(15,18)	(-4,4)	(25,1)	(3,10)	(-38,1)	(-1,19)	(-8,5)	(-10,2)	(14,21)	(-6,3)	(-2,6)	
L2C 7>	(1,187)	(0,5)	(-1,26)	(5,22)	(14,55)	(2,74)	(-6,51)	(-2,14)	(10,5)	(3,26)	(-5,21)	(13,1)	(4,7)	(-8,7)	(15,5)	(-3,6)	
L2C 8>	(1,134)	(-7,21)	(-8,7)	(14,15)	(-1,15)	(-2,12)	(-19,1)	(5,26)	(-5,30)	(-3,10)	(11,13)	(2,31)	(3,8)	(-6,14)	(10,3)	(15,7)	
L2C 9>	(-4,5)	(11,78)	(-1,28)	(1,236)	(14,19)	(-8,26)	(5,76)	(-20,1)	(3,10)	(-9,5)	(-6,11)	(2,44)	(10,8)	(12,3)	(-5,44)	(4,10)	
L2C 10>	(1,121)	(-9,19)	(-1,23)	(5,190)	(-5,30)	(-39,1)	(-22,4)	(10,28)	(15,10)	(11,150)	(4,11)	(-11,41)	(2,41)	(-19,5)	(6,18)	(-18,6)	
L2C 11>	(5,3)	(11,226)	(-33,2)	(-37,1)	(-44,2)	(2,3)	(-22,13)	(1,11)	(-12,7)	(-56,24)	(-45,27)	(-23,14)	(-1,3)	(22,9)	(-14,1)	(-34,18)	
L2C 12>	(-1,55)	(1,223)	(-13,30)	(-19,8)	(-12,7)	(-11,28)	(-6,9)	(-4,18)	(3,26)	(11,34)	(-35,7)	(5,37)	(10,18)	(-10,6)	(2,60)	(-26,1)	
L2C 13>	(1,240)	(-7,7)	(-1,29)	(-13,26)	(5,42)	(-2,15)	(-8,18)	(-11,15)	(-14,15)	(-3,6)	(2,41)	(-12,19)	(-5,14)	(9,1)	(24,2)	(-19,3)	
L2C 14>	(1,169)	(2,24)	(4,12)	(-13,16)	(-18,7)	(5,71)	(33,14)	(-5,7)	(10,9)	(-11,17)	(-1,28)	(-9,15)	(-37,1)	(-10,9)	(-2,12)	(3,9)	
L2C 15>	(-3,14)	(-1,18)	(-14,75)	(1,174)	(-32,1)	(-5,24)	(-41,5)	(3,15)	(-23,7)	(2,51)	(5,141)	(9,6)	(-16,6)	(-25,3)	(-24,6)	(-11,8)	
L2C 16>	(1,179)	(-15,56)	(5,85)	(-14,13)	(-6,16)	(-22,15)	(2,52)	(-5,46)	(-17,20)	(-24,7)	(3,17)	(-10,1)	(-3,10)	(0,20)	(-16,68)	(-13,13)	
L2C 17>	(-15,35)	(2,41)	(1,146)	(-16,149)	(6,13)	(10,8)	(5,45)	(-10,13)	(-13,1)	(-14,5)	(13,5)	(-5,18)	(-22,10)	(-6,14)	(-1,25)	(8,6)	
L2C 18>	(1,11)	(-1,4)	(-20,2)	(-17,148)	(5,3)	(-6,2)	(-16,21)	(-14,1)	(-19,3)	(11,1)	(-11,0)	(10,1)	(29,0)	(2,0)	(-54,0)	(-18,2)	
L2C 19>	(11,5)	(5,19)	(1,52)	(-18,171)	(-22,6)	(-15,2)	(-17,19)	(4,2)	(-1,72)	(9,2)	(-16,43)	(-14,7)	(20,1)	(2,15)	(-12,2)	(-5,3)	
L2C 20>	(1,92)	(-19,17)	(-14,7)	(33,28)	(10,11)	(-17,104)	(15,3)	(-16,15)	(-18,39)	(-10,17)	(-46,1)	(-51,3)	(18,4)	(5,43)	(-27,5)	(11,12)	
L2C 21>	(-19,13)	(1,91)	(5,53)	(11,22)	(-20,17)	(-22,10)	(-18,12)	(4,3)	(-1,18)	(15,1)	(-16,8)	(-24,5)	(-17,10)	(-8,7)	(-23,10)	(-5,9)	
L2C 22>	(1,66)	(11,206)	(-18,87)	(-33,8)	(-56,39)	(-23,28)	(-32,1)	(2,5)	(-17,29)	(-15,10)	(5,12)	(3,2)	(33,14)	(-45,6)	(-1,11)	(-16,2)	
L2C 23>	(1,83)	(-19,6)	(-12,16)	(-18,7)	(2,13)	(3,11)	(-54,1)	(-22,10)	(-37,3)	(5,28)	(11,7)	(19,4)	(-16,46)	(-1,19)	(-2,4)	(-3,5)	
L2C 24>	(-3,1)	(5,22)	(1,65)	(-1,19)	(2,12)	(-22,6)	(-10,11)	(-19,14)	(-14,4)	(-23,14)	(23,2)	(-9,2)	(-31,3)	(-2,6)	(19,3)	(-16,17)	
L2C 25>	(18,7)	(1,94)	(-45,1)	(-2,5)	(-13,7)	(-34,5)	(3,6)	(-20,21)	(-3,5)	(-17,14)	(-4,4)	(-31,4)	(-18,6)	(5,17)	(-15,3)	(-1,4)	
L2C 26>	(1,92)	(-4,3)	(4,2)	(-17,4)	(-25,23)	(5,23)	(2,16)	(-1,17)	(-23,6)	(-13,5)	(-30,4)	(10,6)	(-21,7)	(-14,1)	(-16,2)	(-18,4)	
L2C 27>	(1,113)	(-28,3)	(-7,3)	(-1,26)	(5,15)	(-22,8)	(2,14)	(-20,3)	(-26,9)	(-30,1)	(-21,6)	(-19,1)	(3,8)	(-33,5)	(7,2)	(-23,6)	
L2C 28>	(1,92)	(-28,5)	(-39,1)	(2,11)	(-12,4)	(-27,3)	(10,8)	(-2,5)	(0,4)	(-29,4)	(5,16)	(-23,13)	(-1,28)	(6,2)	(-7,2)	(3,4)	
L2C 29>	(1,99)	(-1,24)	(-5,7)	(-21,1)	(-30,4)	(13,3)	(2,12)	(5,19)	(-3,7)	(-32,3)	(-35,4)	(-22,6)	(-33,3)	(-28,12)	(-6,2)	(-34,4)	
L2C 30>	(-5,10)	(10,2)	(1,78)	(-13,3)	(5,6)	(-1,24)	(2,22)	(-29,7)	(-10,3)	(-51,2)	(8,2)	(-25,2)	(-20,1)	(-43,2)	(-23,6)	(15,1)	
L2C 31>	(-2,3)	(-22,4)	(5,21)	(-3,6)	(11,4)	(-30,7)	(1,76)	(-1,8)	(-21,2)	(-32,6)	(-14,2)	(-5,1)	(10,2)	(-25,4)	(3,11)	(2,18)	
L2C 32>	(-1,21)	(11,3)	(-31,9)	(3,4)	(5,5)	(1,88)	(-6,3)	(-51,2)	(-33,3)	(-28,8)	(-40,2)	(-50,1)	(-25,3)	(-27,2)	(-37,3)	(2,13)	
L2C 33>	(1,179)	(-32,3)	(11,38)	(5,7)	(-2,6)	(3,36)	(-26,14)	(-1,20)	(-10,6)	(-28,14)	(-56,8)	(4,1)	(2,17)	(16,2)	(-34,7)	(-4,4)	
L2C 34>	(1,87)	(-10,3)	(3,8)	(2,14)	(-34,8)	(-36,6)	(-23,3)	(8,11)	(-1,21)	(-35,5)	(-33,6)	(5,9)	(-2,4)	(-30,3)	(-22,1)	(-9,1)	
L2C 35>	(7,8)	(1,59)	(-2,4)	(-22,3)	(-34,7)	(-18,2)	(5,5)	(-25,1)	(-36,9)	(-50,1)	(6,4)	(-46,1)	(-35,7)	(-32,1)	(-1,9)	(2,20)	
L2C 36>	(3,7)	(-38,5)	(1,67)	(-1,8)	(-33,3)	(-5,5)	(-36,4)	(-35,1)	(-9,2)	(-32,1)	(5,16)	(15,2)	(-41,2)	(-27,1)	(-26,4)	(2,14)	
L2C 37>	(1,49)	(-1,9)	(2,13)	(-36,2)	(-34,4)	(5,7)	(3,7)	(-40,3)	(-38,6)	(-4,2)	(-30,4)	(-7,1)	(-39,8)	(-29,1)	(-42,1)	(-19,2)	
L2C 38>	(-1,11)	(-42,1)	(-34,5)	(-29,2)	(-43,1)	(1,48)	(-18,2)	(2,10)	(-17,18)	(6,2)	(3,10)	(-33,3)	(-13,4)	(-4,3)	(-26,3)	(-39,1)	
L2C 39>	(1,36)	(0,9)	(-37,3)	(-31,2)	(9,3)	(-18,3)	(-39,48)	(-38,3)	(2,12)	(-1,26)	(-2,1)	(3,4)	(5,7)	(-40,8)	(-35,3)	(-34,1)	
L2C 40>	(1,139)	(3,10)	(-36,2)	(-18,7)	(-49,1)	(-40,3)	(2,15)	(-34,2)	(-1,11)	(0,18)	(4,3)	(-39,5)	(-51,1)	(-5,2)	(18,1)	(5,4)	
L2C 41>	(-20,3)	(1,67)	(-5,2)	(-53,2)	(-1,13)	(2,11)	(-7,1)	(5,16)	(0,7)	(-30,1)	(-41,4)	(-24,1)	(-10,1)	(-42,5)	(4,2)	(11,2)	
L2C 42>	(1,44)	(0,7)	(-41,14)	(-1,14)	(2,8)	(-42,2)	(5,1)	(-40,12)	(-4,5)	(-7,3)	(8,1)	(-49,1)	(-28,1)	(-43,10)	(-34,4)	(-31,7)	
L2C 43>	(-44,11)	(1,27)	(-42,14)	(-1,15)	(-22,5)	(-16,5)	(2,10)	(-2,4)	(-39,1)	(-3,6)	(-33,4)	(3,3)	(-6,2)	(11,4)	(-41,43)	(-27,3)	
L2C 44>	(11,2)	(-43,11)	(2,5)	(0,10)	(1,33)	(-1,10)	(-10,4)	(-28,2)	(-4,7)	(-33,3)	(3,2)	(-44,11)	(-40,3)	(-39,1)	(-31,3)	(15,1)	
L2C 45>	(5,5)	(-44,4)	(4,4)	(-38,5)	(1,35)	(-41,9)	(-27,1)	(2,10)	(-22,3)	(-20,1)	(-34,2)	(-4,2)	(-19,1)	(-5,4)	(-9,3)	(-47,2)	
L2C 46>	(1,37)	(-28,4)	(-47,2)	(5,3)	(-15,2)	(0,3)	(-45,8)	(-54,1)	(2,7)	(-42,1)	(3,3)	(-14,1)	(-41,3)	(-18,3)	(-8,1)	(-20,1)	
L2C 47>	(1,39)	(-4,1)	(-41,2)	(6,2)	(2,12)	(-46,6)	(-1,8)	(-30,3)	(-48,5)	(-35,2)	(3,7)	(-45,3)	(0,1)	(-15,2)	(-3,2)	(-37,1)	
L2C 48>	(1,44)	(-60,1)	(2,13)	(-48,5)	(-6,2)	(-47,6)	(-46,3)	(-38,3)	(-49,2)	(-45,5)	(-51,4)	(-52,4)	(-43,8)	(-40,1)	(-17,2)	(-37,1)	
L2C 49>	(1,57)	(-42,5)	(-33,2)	(-48,4)	(-53,8)	(-52,2)	(-24,2)	(-46,3)	(-36,1)	(2,10)	(-1,5)	(-12,1)	(-50,3)	(4,3)	(3,7)	(-10,1)	
L2C 50>	(5,1)	(-49,7)	(1,60)	(2,10)	(-19,2)	(3,12)	(-55,4)	(-36,1)	(-25,1)	(-1,5)	(-56,1)	(-61,2)	(-9,1)	(-54,4)	(-6,1)	(-50,2)	
L2C 51>	(-52,14)	(3,8)	(1,26)	(-38,5)	(-2,2)	(-55,3)	(-50,12)	(-54,5)	(-41,4)	(-49,2)	(-46,1)	(-1,2)	(-48,2)	(-26,1)	(-44,3)	(-53,7)	
L2C 52>	(1,26)	(2,11)	(-51,10)	(5,2)	(-47,2)	(-43,2)	(-50,3)	(3,4)	(-53,1)	(-31,1)	(-61,1)	(-63,1)	(-41,2)	(-22,1)	(-30,1)	(-2,2)	
L2C 53>	(1,18)	(-1,2)	(-47,1)	(-24,2)	(2,11)	(-15,1)	(-55,2)	(-48,1)	(-3,1)	(3,4)	(-49,1)	(-7,1)	(-33,1)	(-27,1)	(-54,1)	(-44,2)	
L2C 54>	(1,12)	(-53,6)	(3,3)	(-55,1)	(-13,2)	(2,5)	(-50,1)	(-1,3)	(-2,1)	(-36,1)	(-11,1)	(5,1)	(-61,2)	(-40,1)	(-54,2)	(4,1)	
L2C 55>	(1,26)	(-57,7)	(-50,1)	(-44,2)	(-6,1)	(2,5)	(3,5)	(-49,1)	(-56,1)	(-7,1)	(-16,1)	(-52,1)	(4,2)	(0,4)	(-20,1)	(-51,1)	
L2C 56>	(-49,1)	(-62,1)	(-19,1)	(-61,3)	(-57,2)	(-54,1)	(0,2)	(-1,1)	(-44,1)	(1,8)	(-50,1)	(-45,3)	(-52,1)	(2,2)	(-59,1)	(-58,1)	
L2C 57>	(1,18)	(2,1)	(-45,1)	(-57,1)	(3,2)	(0,4)	(-52,1)	(-2,2)	(-5,1)	(-1,2)	(-21,1)	(-17,1)	(1,0)	(1,0)	(1,0)	(1,0)	
L2C 58>	(1,12)	(-43,1)	(2,2)	(-12,1)	(-1,6)	(-23,1)	(-51,1)	(3,1)	(-20,1)	(-59,1)	(-47,1)	(1,0)	(1,0)	(1,0)	(1,0)	(1,0)	
L2C 59>	(1,3)	(-1,3)	(-48,2)	(-18,1)	(-51,2)	(-27,1)	(-61,1)	(-52,3)	(-50,1)	(-37,1)	(1,0)	(1,0)	(1,0)	(1,0)	(1,0)	(1,0)	
L2C 60>	(-55,1)	(-3,1)	(-48,1)	(-18,1)	(-1,2)	(1,2)	(-25,1)	(-21,1)	(-8,1)	(1,0)	(1,0)	(1,0)	(1,0)	(1,0)	(1,0)	(1,0)	
L2C 61>	(-31,1)	(-28,1)	(-21,1)	(-3,1)	(-18,1)	(1,1)	(1,0)	(1,0)	(1,0)	(1,0)	(1,0)	(1,0)	(1,0)	(1,0)	(1,0)	(1,0)	
L2C 62>	(0,1)	(-11,1)	(-20,1)	(-46,1)	(1,2)	(-51,1)	(-48,1)	(-4,1)	(1,0)	(1,0)	(1,0)	(1,0)	(1,0)	(1,0)	(1,0)	(1,0)	
L2C 63>	(-62,1)	(-1,2)	(1,0)	(1,0)	(1,0)	(1,0)	(1,0)	(1,0)	(1,0)	(1,0)	(1,0)	(1,0)	(1,0)	(1,0)	(1,0)	(1,0)	

DRAM Statistics
 CHANNEL 0
 RQ ROW_BUFFER_HIT:     240126  ROW_BUFFER_MISS:     591803
 DBUS_CONGESTED:     560751
 WQ ROW_BUFFER_HIT:      26396  ROW_BUFFER_MISS:     221582  FULL:          0

 AVG_CONGESTED_CYCLE: 6
