
*** ChampSim Multicore Out-of-Order Simulator ***

Warmup Instructions: 1000000
Simulation Instructions: 10000000
Number of CPUs: 4
LLC sets: 8192
LLC ways: 16
Off-chip DRAM Size: 4096 MB Channels: 1 Width: 64-bit Data Rate: 3200 MT/s

CPU 0 runs /home/virtualcse/Data-Prefetching/ChampSim/dpc3_traces/603.bwaves_s-1080B.champsimtrace.xz
CPU 1 runs /home/virtualcse/Data-Prefetching/ChampSim/dpc3_traces/619.lbm_s-2676B.champsimtrace.xz
CPU 2 runs /home/virtualcse/Data-Prefetching/ChampSim/dpc3_traces/607.cactuBSSN_s-2421B.champsimtrace.xz
CPU 3 runs /home/virtualcse/Data-Prefetching/ChampSim/dpc3_traces/620.omnetpp_s-141B.champsimtrace.xz
Ultra pref. initializing...
Ultra pref. initialized
Ultra pref. initializing...
Ultra pref. initialized
Ultra pref. initializing...
Ultra pref. initialized
Ultra pref. initializing...
Ultra pref. initialized
Ultra pref. initializing...
Ultra pref. initialized
Ultra pref. initializing...
Ultra pref. initialized
Ultra pref. initializing...
Ultra pref. initialized
Ultra pref. initializing...
Ultra pref. initialized

Warmup complete CPU 0 instructions: 1560781 cycles: 540609 (Simulation time: 0 hr 0 min 12 sec) 
Warmup complete CPU 1 instructions: 1593983 cycles: 540609 (Simulation time: 0 hr 0 min 12 sec) 
Warmup complete CPU 2 instructions: 1121664 cycles: 540609 (Simulation time: 0 hr 0 min 12 sec) 
Warmup complete CPU 3 instructions: 1000001 cycles: 540609 (Simulation time: 0 hr 0 min 12 sec) 

Heartbeat CPU 0 instructions: 10000001 cycles: 5745350 heartbeat IPC: 1.74054 cumulative IPC: 1.62145 (Simulation time: 0 hr 0 min 47 sec) 
Finished CPU 0 instructions: 10000001 cycles: 6503104 cumulative IPC: 1.53773 (Simulation time: 0 hr 0 min 55 sec) 
Heartbeat CPU 2 instructions: 10000001 cycles: 9300601 heartbeat IPC: 1.0752 cumulative IPC: 1.01351 (Simulation time: 0 hr 1 min 9 sec) 
Finished CPU 2 instructions: 10000000 cycles: 10166117 cumulative IPC: 0.98366 (Simulation time: 0 hr 1 min 17 sec) 
Heartbeat CPU 0 instructions: 20000003 cycles: 12645314 heartbeat IPC: 1.44928 cumulative IPC: 1.52331 (Simulation time: 0 hr 1 min 30 sec) 
Heartbeat CPU 0 instructions: 30000001 cycles: 17256835 heartbeat IPC: 2.16848 cumulative IPC: 1.70129 (Simulation time: 0 hr 2 min 1 sec) 
Heartbeat CPU 2 instructions: 20000000 cycles: 19044496 heartbeat IPC: 1.02628 cumulative IPC: 1.02024 (Simulation time: 0 hr 2 min 14 sec) 
Heartbeat CPU 0 instructions: 40000003 cycles: 21873413 heartbeat IPC: 2.16611 cumulative IPC: 1.80188 (Simulation time: 0 hr 2 min 33 sec) 
Heartbeat CPU 0 instructions: 50000003 cycles: 26548786 heartbeat IPC: 2.13887 cumulative IPC: 1.86246 (Simulation time: 0 hr 3 min 5 sec) 
Heartbeat CPU 1 instructions: 10000002 cycles: 26761355 heartbeat IPC: 0.373673 cumulative IPC: 0.320587 (Simulation time: 0 hr 3 min 7 sec) 
Heartbeat CPU 2 instructions: 30000001 cycles: 28420614 heartbeat IPC: 1.06654 cumulative IPC: 1.03581 (Simulation time: 0 hr 3 min 18 sec) 
Heartbeat CPU 0 instructions: 60000000 cycles: 31285874 heartbeat IPC: 2.111 cumulative IPC: 1.90076 (Simulation time: 0 hr 3 min 37 sec) 
Finished CPU 1 instructions: 10000001 cycles: 30791957 cumulative IPC: 0.32476 (Simulation time: 0 hr 3 min 37 sec) 
Heartbeat CPU 0 instructions: 70000003 cycles: 36012025 heartbeat IPC: 2.11589 cumulative IPC: 1.92942 (Simulation time: 0 hr 4 min 8 sec) 
Heartbeat CPU 2 instructions: 40000000 cycles: 37866363 heartbeat IPC: 1.05868 cumulative IPC: 1.0416 (Simulation time: 0 hr 4 min 20 sec) 
Heartbeat CPU 0 instructions: 80000002 cycles: 40740413 heartbeat IPC: 2.11489 cumulative IPC: 1.95123 (Simulation time: 0 hr 4 min 40 sec) 
Heartbeat CPU 0 instructions: 90000001 cycles: 45501854 heartbeat IPC: 2.1002 cumulative IPC: 1.96701 (Simulation time: 0 hr 5 min 11 sec) 
Heartbeat CPU 2 instructions: 50000003 cycles: 47265317 heartbeat IPC: 1.06395 cumulative IPC: 1.04609 (Simulation time: 0 hr 5 min 23 sec) 
Heartbeat CPU 0 instructions: 100000001 cycles: 50272796 heartbeat IPC: 2.09602 cumulative IPC: 1.97939 (Simulation time: 0 hr 5 min 41 sec) 
Heartbeat CPU 3 instructions: 10000000 cycles: 50797054 heartbeat IPC: 0.196862 cumulative IPC: 0.179081 (Simulation time: 0 hr 5 min 45 sec) 
Heartbeat CPU 0 instructions: 110000000 cycles: 55010357 heartbeat IPC: 2.11079 cumulative IPC: 1.99082 (Simulation time: 0 hr 6 min 17 sec) 
Heartbeat CPU 2 instructions: 60000003 cycles: 55827570 heartbeat IPC: 1.16792 cumulative IPC: 1.06496 (Simulation time: 0 hr 6 min 23 sec) 
Finished CPU 3 instructions: 10000000 cycles: 56436452 cumulative IPC: 0.17719 (Simulation time: 0 hr 6 min 32 sec) 

CPU 0 Branch Prediction Accuracy: 92.0952% MPKI: 10.8233 Average ROB Occupancy at Mispredict: 83.9687

CPU 1 Branch Prediction Accuracy: 97.3961% MPKI: 0.434807 Average ROB Occupancy at Mispredict: 316.392

CPU 2 Branch Prediction Accuracy: 99.6612% MPKI: 0.0209128 Average ROB Occupancy at Mispredict: 48.0885

CPU 3 Branch Prediction Accuracy: 96.1891% MPKI: 5.6957 Average ROB Occupancy at Mispredict: 87.2818

ChampSim completed all CPUs

Total Simulation Statistics (not including warmup)

CPU 0 cumulative IPC: 1.99556 instructions: 112622079 cycles: 56436452
L1D TOTAL     ACCESS:   20052326  HIT:   19976074  MISS:      76252
L1D LOAD      ACCESS:   11227466  HIT:   11226992  MISS:        474
L1D RFO       ACCESS:    4354990  HIT:    4287081  MISS:      67909
L1D PREFETCH  ACCESS:    4469870  HIT:    4462001  MISS:       7869
L1D WRITEBACK ACCESS:          0  HIT:          0  MISS:          0
L1I TOTAL     ACCESS:    2310799  HIT:    2310795  MISS:          4
L1I LOAD      ACCESS:    2310799  HIT:    2310795  MISS:          4
L1I RFO       ACCESS:          0  HIT:          0  MISS:          0
L1I PREFETCH  ACCESS:          0  HIT:          0  MISS:          0
L1I WRITEBACK ACCESS:          0  HIT:          0  MISS:          0
L2C TOTAL     ACCESS:     162210  HIT:      86635  MISS:      75575
L2C LOAD      ACCESS:        361  HIT:        235  MISS:        126
L2C RFO       ACCESS:      67061  HIT:        748  MISS:      66313
L2C PREFETCH  ACCESS:      26391  HIT:      17256  MISS:       9135
L2C WRITEBACK ACCESS:      68397  HIT:      68396  MISS:          1

L1D -512>	(1,86)	(3,6)	(68,1)	(0,57)	(4,15)	(2,2)	(13,1)	(-5,2)	(-17,1)	(5,10)	(-1,9)	(-2,2)	(-9,4)	(-13,2)	(18,0)	(19,1)	
L1D -511>	(1,2)	(1,0)	(1,0)	(1,0)	(1,0)	(1,0)	(1,0)	(1,0)	(1,0)	(1,0)	(1,0)	(1,0)	(1,0)	(1,0)	(1,0)	(1,0)	
L1D -510>	(-1,1)	(1,0)	(1,0)	(1,0)	(1,0)	(1,0)	(1,0)	(1,0)	(1,0)	(1,0)	(1,0)	(1,0)	(1,0)	(1,0)	(1,0)	(1,0)	
L1D -509>	(1,0)	(1,0)	(1,0)	(1,0)	(1,0)	(1,0)	(1,0)	(1,0)	(1,0)	(1,0)	(1,0)	(1,0)	(1,0)	(1,0)	(1,0)	(1,0)	
L1D -508>	(1,0)	(1,0)	(1,0)	(1,0)	(1,0)	(1,0)	(1,0)	(1,0)	(1,0)	(1,0)	(1,0)	(1,0)	(1,0)	(1,0)	(1,0)	(1,0)	
L1D -507>	(1,0)	(1,0)	(1,0)	(1,0)	(1,0)	(1,0)	(1,0)	(1,0)	(1,0)	(1,0)	(1,0)	(1,0)	(1,0)	(1,0)	(1,0)	(1,0)	
L1D -506>	(122,1)	(1,0)	(1,0)	(1,0)	(1,0)	(1,0)	(1,0)	(1,0)	(1,0)	(1,0)	(1,0)	(1,0)	(1,0)	(1,0)	(1,0)	(1,0)	
L1D -505>	(2,1)	(1,0)	(1,0)	(1,0)	(1,0)	(1,0)	(1,0)	(1,0)	(1,0)	(1,0)	(1,0)	(1,0)	(1,0)	(1,0)	(1,0)	(1,0)	
L1D -504>	(85,2)	(0,1)	(1,0)	(1,0)	(1,0)	(1,0)	(1,0)	(1,0)	(1,0)	(1,0)	(1,0)	(1,0)	(1,0)	(1,0)	(1,0)	(1,0)	
L1D -503>	(0,1)	(1,0)	(1,0)	(1,0)	(1,0)	(1,0)	(1,0)	(1,0)	(1,0)	(1,0)	(1,0)	(1,0)	(1,0)	(1,0)	(1,0)	(1,0)	
L1D -502>	(99,1)	(112,1)	(1,0)	(1,0)	(1,0)	(1,0)	(1,0)	(1,0)	(1,0)	(1,0)	(1,0)	(1,0)	(1,0)	(1,0)	(1,0)	(1,0)	
L1D -501>	(-6,1)	(342,1)	(4,1)	(1,0)	(1,0)	(1,0)	(1,0)	(1,0)	(1,0)	(1,0)	(1,0)	(1,0)	(1,0)	(1,0)	(1,0)	(1,0)	
L1D -500>	(4,1)	(1,0)	(1,0)	(1,0)	(1,0)	(1,0)	(1,0)	(1,0)	(1,0)	(1,0)	(1,0)	(1,0)	(1,0)	(1,0)	(1,0)	(1,0)	
L1D -499>	(29,1)	(1,0)	(1,0)	(1,0)	(1,0)	(1,0)	(1,0)	(1,0)	(1,0)	(1,0)	(1,0)	(1,0)	(1,0)	(1,0)	(1,0)	(1,0)	
L1D -498>	(146,1)	(85,2)	(1,0)	(1,0)	(1,0)	(1,0)	(1,0)	(1,0)	(1,0)	(1,0)	(1,0)	(1,0)	(1,0)	(1,0)	(1,0)	(1,0)	
L1D -497>	(1,0)	(1,0)	(1,0)	(1,0)	(1,0)	(1,0)	(1,0)	(1,0)	(1,0)	(1,0)	(1,0)	(1,0)	(1,0)	(1,0)	(1,0)	(1,0)	
L1D -496>	(135,1)	(1,1)	(1,0)	(1,0)	(1,0)	(1,0)	(1,0)	(1,0)	(1,0)	(1,0)	(1,0)	(1,0)	(1,0)	(1,0)	(1,0)	(1,0)	
L1D -495>	(2,1)	(0,1)	(146,1)	(1,2)	(1,0)	(1,0)	(1,0)	(1,0)	(1,0)	(1,0)	(1,0)	(1,0)	(1,0)	(1,0)	(1,0)	(1,0)	
L1D -494>	(0,1)	(112,2)	(146,1)	(1,0)	(1,0)	(1,0)	(1,0)	(1,0)	(1,0)	(1,0)	(1,0)	(1,0)	(1,0)	(1,0)	(1,0)	(1,0)	
L1D -493>	(1,1)	(0,1)	(1,0)	(1,0)	(1,0)	(1,0)	(1,0)	(1,0)	(1,0)	(1,0)	(1,0)	(1,0)	(1,0)	(1,0)	(1,0)	(1,0)	
L1D -492>	(0,3)	(1,0)	(1,0)	(1,0)	(1,0)	(1,0)	(1,0)	(1,0)	(1,0)	(1,0)	(1,0)	(1,0)	(1,0)	(1,0)	(1,0)	(1,0)	
L1D -491>	(-1,2)	(-4,1)	(1,0)	(1,0)	(1,0)	(1,0)	(1,0)	(1,0)	(1,0)	(1,0)	(1,0)	(1,0)	(1,0)	(1,0)	(1,0)	(1,0)	
L1D -490>	(98,1)	(47,1)	(1,0)	(1,0)	(1,0)	(1,0)	(1,0)	(1,0)	(1,0)	(1,0)	(1,0)	(1,0)	(1,0)	(1,0)	(1,0)	(1,0)	
L1D -489>	(-3,1)	(1,0)	(1,0)	(1,0)	(1,0)	(1,0)	(1,0)	(1,0)	(1,0)	(1,0)	(1,0)	(1,0)	(1,0)	(1,0)	(1,0)	(1,0)	
L1D -488>	(-3,1)	(115,1)	(99,1)	(1,0)	(1,0)	(1,0)	(1,0)	(1,0)	(1,0)	(1,0)	(1,0)	(1,0)	(1,0)	(1,0)	(1,0)	(1,0)	
L1D -487>	(304,1)	(0,1)	(1,0)	(1,0)	(1,0)	(1,0)	(1,0)	(1,0)	(1,0)	(1,0)	(1,0)	(1,0)	(1,0)	(1,0)	(1,0)	(1,0)	
L1D -486>	(99,1)	(55,1)	(18,1)	(0,1)	(79,1)	(1,0)	(1,0)	(1,0)	(1,0)	(1,0)	(1,0)	(1,0)	(1,0)	(1,0)	(1,0)	(1,0)	
L1D -485>	(346,1)	(0,2)	(1,1)	(1,0)	(1,0)	(1,0)	(1,0)	(1,0)	(1,0)	(1,0)	(1,0)	(1,0)	(1,0)	(1,0)	(1,0)	(1,0)	
L1D -484>	(82,1)	(70,1)	(85,3)	(10,1)	(47,1)	(1,0)	(1,0)	(1,0)	(1,0)	(1,0)	(1,0)	(1,0)	(1,0)	(1,0)	(1,0)	(1,0)	
L1D -483>	(322,1)	(1,0)	(1,0)	(1,0)	(1,0)	(1,0)	(1,0)	(1,0)	(1,0)	(1,0)	(1,0)	(1,0)	(1,0)	(1,0)	(1,0)	(1,0)	
L1D -482>	(98,1)	(38,2)	(1,1)	(0,1)	(-6,1)	(1,0)	(1,0)	(1,0)	(1,0)	(1,0)	(1,0)	(1,0)	(1,0)	(1,0)	(1,0)	(1,0)	
L1D -481>	(0,1)	(14,1)	(4,1)	(1,0)	(1,0)	(1,0)	(1,0)	(1,0)	(1,0)	(1,0)	(1,0)	(1,0)	(1,0)	(1,0)	(1,0)	(1,0)	
L1D -480>	(0,1)	(99,2)	(3,1)	(34,1)	(1,0)	(1,0)	(1,0)	(1,0)	(1,0)	(1,0)	(1,0)	(1,0)	(1,0)	(1,0)	(1,0)	(1,0)	
L1D -479>	(146,1)	(0,1)	(1,0)	(1,0)	(1,0)	(1,0)	(1,0)	(1,0)	(1,0)	(1,0)	(1,0)	(1,0)	(1,0)	(1,0)	(1,0)	(1,0)	
L1D -478>	(34,1)	(95,1)	(1,0)	(1,0)	(1,0)	(1,0)	(1,0)	(1,0)	(1,0)	(1,0)	(1,0)	(1,0)	(1,0)	(1,0)	(1,0)	(1,0)	
L1D -477>	(1,0)	(1,0)	(1,0)	(1,0)	(1,0)	(1,0)	(1,0)	(1,0)	(1,0)	(1,0)	(1,0)	(1,0)	(1,0)	(1,0)	(1,0)	(1,0)	
L1D -476>	(91,1)	(3,1)	(-2,1)	(0,12)	(1,1)	(1,0)	(1,0)	(1,0)	(1,0)	(1,0)	(1,0)	(1,0)	(1,0)	(1,0)	(1,0)	(1,0)	
L1D -475>	(246,1)	(0,1)	(4,1)	(1,0)	(1,0)	(1,0)	(1,0)	(1,0)	(1,0)	(1,0)	(1,0)	(1,0)	(1,0)	(1,0)	(1,0)	(1,0)	
L1D -474>	(0,1)	(1,0)	(1,0)	(1,0)	(1,0)	(1,0)	(1,0)	(1,0)	(1,0)	(1,0)	(1,0)	(1,0)	(1,0)	(1,0)	(1,0)	(1,0)	
L1D -473>	(4,1)	(52,1)	(1,0)	(1,0)	(1,0)	(1,0)	(1,0)	(1,0)	(1,0)	(1,0)	(1,0)	(1,0)	(1,0)	(1,0)	(1,0)	(1,0)	
L1D -472>	(4,1)	(1,0)	(1,0)	(1,0)	(1,0)	(1,0)	(1,0)	(1,0)	(1,0)	(1,0)	(1,0)	(1,0)	(1,0)	(1,0)	(1,0)	(1,0)	
L1D -471>	(1,2)	(0,1)	(262,1)	(14,1)	(1,0)	(1,0)	(1,0)	(1,0)	(1,0)	(1,0)	(1,0)	(1,0)	(1,0)	(1,0)	(1,0)	(1,0)	
L1D -470>	(45,1)	(0,2)	(124,1)	(2,1)	(204,1)	(34,1)	(121,1)	(370,1)	(1,1)	(1,0)	(1,0)	(1,0)	(1,0)	(1,0)	(1,0)	(1,0)	
L1D -469>	(350,1)	(23,1)	(1,0)	(1,0)	(1,0)	(1,0)	(1,0)	(1,0)	(1,0)	(1,0)	(1,0)	(1,0)	(1,0)	(1,0)	(1,0)	(1,0)	
L1D -468>	(20,1)	(0,1)	(69,1)	(103,1)	(1,0)	(1,0)	(1,0)	(1,0)	(1,0)	(1,0)	(1,0)	(1,0)	(1,0)	(1,0)	(1,0)	(1,0)	
L1D -467>	(1,1)	(3,1)	(0,1)	(1,0)	(1,0)	(1,0)	(1,0)	(1,0)	(1,0)	(1,0)	(1,0)	(1,0)	(1,0)	(1,0)	(1,0)	(1,0)	
L1D -466>	(490,1)	(4,1)	(1,0)	(1,0)	(1,0)	(1,0)	(1,0)	(1,0)	(1,0)	(1,0)	(1,0)	(1,0)	(1,0)	(1,0)	(1,0)	(1,0)	
L1D -465>	(2,1)	(5,1)	(1,1)	(1,0)	(1,0)	(1,0)	(1,0)	(1,0)	(1,0)	(1,0)	(1,0)	(1,0)	(1,0)	(1,0)	(1,0)	(1,0)	
L1D -464>	(69,1)	(-1,1)	(17,1)	(0,3)	(2,1)	(1,1)	(1,0)	(1,0)	(1,0)	(1,0)	(1,0)	(1,0)	(1,0)	(1,0)	(1,0)	(1,0)	
L1D -463>	(1,1)	(0,1)	(17,1)	(1,0)	(1,0)	(1,0)	(1,0)	(1,0)	(1,0)	(1,0)	(1,0)	(1,0)	(1,0)	(1,0)	(1,0)	(1,0)	
L1D -462>	(218,1)	(89,1)	(1,1)	(1,0)	(1,0)	(1,0)	(1,0)	(1,0)	(1,0)	(1,0)	(1,0)	(1,0)	(1,0)	(1,0)	(1,0)	(1,0)	
L1D -461>	(17,1)	(1,1)	(430,1)	(1,0)	(1,0)	(1,0)	(1,0)	(1,0)	(1,0)	(1,0)	(1,0)	(1,0)	(1,0)	(1,0)	(1,0)	(1,0)	
L1D -460>	(1,1)	(0,1)	(34,1)	(382,1)	(1,0)	(1,0)	(1,0)	(1,0)	(1,0)	(1,0)	(1,0)	(1,0)	(1,0)	(1,0)	(1,0)	(1,0)	
L1D -459>	(0,2)	(146,1)	(1,1)	(1,0)	(1,0)	(1,0)	(1,0)	(1,0)	(1,0)	(1,0)	(1,0)	(1,0)	(1,0)	(1,0)	(1,0)	(1,0)	
L1D -458>	(459,1)	(456,1)	(91,1)	(0,4)	(48,1)	(-6,1)	(1,0)	(1,0)	(1,0)	(1,0)	(1,0)	(1,0)	(1,0)	(1,0)	(1,0)	(1,0)	
L1D -457>	(1,1)	(14,1)	(1,0)	(1,0)	(1,0)	(1,0)	(1,0)	(1,0)	(1,0)	(1,0)	(1,0)	(1,0)	(1,0)	(1,0)	(1,0)	(1,0)	
L1D -456>	(1,4)	(66,1)	(89,1)	(0,1)	(376,1)	(1,0)	(1,0)	(1,0)	(1,0)	(1,0)	(1,0)	(1,0)	(1,0)	(1,0)	(1,0)	(1,0)	
L1D -455>	(54,1)	(2,1)	(68,14)	(0,1)	(1,0)	(1,0)	(1,0)	(1,0)	(1,0)	(1,0)	(1,0)	(1,0)	(1,0)	(1,0)	(1,0)	(1,0)	
L1D -454>	(1,21)	(0,33)	(108,1)	(79,1)	(50,2)	(57,2)	(1,0)	(1,0)	(1,0)	(1,0)	(1,0)	(1,0)	(1,0)	(1,0)	(1,0)	(1,0)	
L1D -453>	(0,1)	(17,1)	(1,0)	(1,0)	(1,0)	(1,0)	(1,0)	(1,0)	(1,0)	(1,0)	(1,0)	(1,0)	(1,0)	(1,0)	(1,0)	(1,0)	
L1D -452>	(0,1)	(1,2)	(83,1)	(426,1)	(-1,1)	(124,1)	(1,0)	(1,0)	(1,0)	(1,0)	(1,0)	(1,0)	(1,0)	(1,0)	(1,0)	(1,0)	
L1D -451>	(2,2)	(70,1)	(5,1)	(0,1)	(1,0)	(1,0)	(1,0)	(1,0)	(1,0)	(1,0)	(1,0)	(1,0)	(1,0)	(1,0)	(1,0)	(1,0)	
L1D -450>	(97,1)	(0,6)	(366,1)	(38,1)	(4,1)	(1,0)	(1,0)	(1,0)	(1,0)	(1,0)	(1,0)	(1,0)	(1,0)	(1,0)	(1,0)	(1,0)	
L1D -449>	(68,106)	(2,1)	(0,2)	(1,1)	(5,1)	(1,0)	(1,0)	(1,0)	(1,0)	(1,0)	(1,0)	(1,0)	(1,0)	(1,0)	(1,0)	(1,0)	
L1D -448>	(68,6)	(449,1)	(1,1)	(106,1)	(57,1)	(-13,1)	(69,1)	(0,2)	(438,1)	(1,0)	(1,0)	(1,0)	(1,0)	(1,0)	(1,0)	(1,0)	
L1D -447>	(-1,1)	(1,1)	(0,2)	(71,1)	(1,0)	(1,0)	(1,0)	(1,0)	(1,0)	(1,0)	(1,0)	(1,0)	(1,0)	(1,0)	(1,0)	(1,0)	
L1D -446>	(77,3)	(0,1)	(278,1)	(4,1)	(1,2)	(108,1)	(1,0)	(1,0)	(1,0)	(1,0)	(1,0)	(1,0)	(1,0)	(1,0)	(1,0)	(1,0)	
L1D -445>	(0,2)	(68,1)	(1,1)	(458,1)	(23,1)	(2,1)	(-10,1)	(1,0)	(1,0)	(1,0)	(1,0)	(1,0)	(1,0)	(1,0)	(1,0)	(1,0)	
L1D -444>	(1,1)	(71,1)	(69,2)	(0,2)	(272,1)	(1,0)	(1,0)	(1,0)	(1,0)	(1,0)	(1,0)	(1,0)	(1,0)	(1,0)	(1,0)	(1,0)	
L1D -443>	(396,1)	(217,1)	(1,1)	(0,2)	(1,0)	(1,0)	(1,0)	(1,0)	(1,0)	(1,0)	(1,0)	(1,0)	(1,0)	(1,0)	(1,0)	(1,0)	
L1D -442>	(0,4)	(-1,1)	(399,1)	(1,1)	(216,1)	(-7,1)	(1,0)	(1,0)	(1,0)	(1,0)	(1,0)	(1,0)	(1,0)	(1,0)	(1,0)	(1,0)	
L1D -441>	(-1,3)	(60,1)	(70,1)	(-10,1)	(1,0)	(1,0)	(1,0)	(1,0)	(1,0)	(1,0)	(1,0)	(1,0)	(1,0)	(1,0)	(1,0)	(1,0)	
L1D -440>	(95,1)	(2,2)	(-1,1)	(3,1)	(0,1)	(77,1)	(-3,1)	(63,1)	(1,0)	(1,0)	(1,0)	(1,0)	(1,0)	(1,0)	(1,0)	(1,0)	
L1D -439>	(1,2)	(0,2)	(-4,1)	(35,2)	(14,1)	(1,0)	(1,0)	(1,0)	(1,0)	(1,0)	(1,0)	(1,0)	(1,0)	(1,0)	(1,0)	(1,0)	
L1D -438>	(4,2)	(14,1)	(0,2)	(61,2)	(438,1)	(34,1)	(1,1)	(1,0)	(1,0)	(1,0)	(1,0)	(1,0)	(1,0)	(1,0)	(1,0)	(1,0)	
L1D -437>	(394,1)	(345,11)	(-8,1)	(-2,1)	(0,1)	(29,2)	(1,0)	(1,0)	(1,0)	(1,0)	(1,0)	(1,0)	(1,0)	(1,0)	(1,0)	(1,0)	
L1D -436>	(-1,2)	(436,2)	(73,1)	(410,1)	(437,1)	(63,3)	(0,1)	(107,1)	(69,1)	(1,0)	(1,0)	(1,0)	(1,0)	(1,0)	(1,0)	(1,0)	
L1D -435>	(0,3)	(190,1)	(-1,2)	(1,1)	(-6,1)	(23,1)	(1,0)	(1,0)	(1,0)	(1,0)	(1,0)	(1,0)	(1,0)	(1,0)	(1,0)	(1,0)	
L1D -434>	(1,11)	(-1,1)	(0,4)	(398,1)	(5,2)	(-11,1)	(101,1)	(69,1)	(1,0)	(1,0)	(1,0)	(1,0)	(1,0)	(1,0)	(1,0)	(1,0)	
L1D -433>	(1,8)	(5,1)	(0,1)	(364,1)	(328,1)	(1,0)	(1,0)	(1,0)	(1,0)	(1,0)	(1,0)	(1,0)	(1,0)	(1,0)	(1,0)	(1,0)	
L1D -432>	(38,1)	(3,2)	(10,1)	(91,1)	(0,3)	(1,1)	(61,1)	(52,1)	(-20,1)	(2,2)	(26,1)	(120,1)	(1,0)	(1,0)	(1,0)	(1,0)	
L1D -431>	(23,1)	(17,1)	(0,2)	(1,1)	(47,2)	(1,0)	(1,0)	(1,0)	(1,0)	(1,0)	(1,0)	(1,0)	(1,0)	(1,0)	(1,0)	(1,0)	
L1D -430>	(0,2)	(169,1)	(418,1)	(26,1)	(69,1)	(92,1)	(-2,1)	(286,1)	(32,1)	(1,0)	(1,0)	(1,0)	(1,0)	(1,0)	(1,0)	(1,0)	
L1D -429>	(-29,1)	(4,1)	(56,1)	(0,1)	(238,1)	(62,1)	(431,2)	(1,1)	(29,1)	(411,1)	(71,2)	(1,0)	(1,0)	(1,0)	(1,0)	(1,0)	
L1D -428>	(-1,11)	(412,1)	(408,1)	(4,1)	(61,3)	(0,4)	(360,1)	(250,1)	(468,1)	(1,4)	(89,1)	(1,0)	(1,0)	(1,0)	(1,0)	(1,0)	
L1D -427>	(28,124)	(1,34)	(47,1)	(-1,31)	(2,2)	(56,1)	(-5,1)	(5,4)	(0,3)	(1,0)	(1,0)	(1,0)	(1,0)	(1,0)	(1,0)	(1,0)	
L1D -426>	(1,91)	(27,39)	(-1,87)	(4,6)	(3,1)	(-47,1)	(0,4)	(406,1)	(37,1)	(54,1)	(57,1)	(40,3)	(1,0)	(1,0)	(1,0)	(1,0)	
L1D -425>	(-1,101)	(14,1)	(1,2)	(5,0)	(412,0)	(0,0)	(1,0)	(1,0)	(1,0)	(1,0)	(1,0)	(1,0)	(1,0)	(1,0)	(1,0)	(1,0)	
L1D -424>	(1,5)	(406,1)	(-1,6)	(34,1)	(0,3)	(53,1)	(428,1)	(412,1)	(20,1)	(1,0)	(1,0)	(1,0)	(1,0)	(1,0)	(1,0)	(1,0)	
L1D -423>	(1,2)	(0,4)	(5,2)	(215,32)	(406,1)	(-10,4)	(213,1)	(-1,13)	(382,1)	(217,1)	(32,1)	(-2,1)	(1,0)	(1,0)	(1,0)	(1,0)	
L1D -422>	(2,59)	(1,8)	(-1,44)	(215,69)	(34,2)	(-79,1)	(213,17)	(212,1)	(214,89)	(222,2)	(216,1)	(37,1)	(28,1)	(421,1)	(410,2)	(418,1)	
L1D -421>	(-1,67)	(2,1)	(214,8)	(213,2)	(422,0)	(1,1)	(1,0)	(1,0)	(1,0)	(1,0)	(1,0)	(1,0)	(1,0)	(1,0)	(1,0)	(1,0)	
L1D -420>	(0,6)	(421,4)	(402,3)	(215,1)	(2,1)	(394,1)	(420,2)	(388,1)	(53,1)	(1,1)	(-4,1)	(248,1)	(1,0)	(1,0)	(1,0)	(1,0)	
L1D -419>	(1,3)	(420,2)	(11,3)	(-1,2)	(2,1)	(419,5)	(213,1)	(26,1)	(383,1)	(56,1)	(-43,1)	(0,1)	(1,0)	(1,0)	(1,0)	(1,0)	
L1D -418>	(3,69)	(160,1)	(-44,1)	(419,2)	(418,1)	(0,1)	(326,0)	(46,0)	(1,0)	(1,0)	(1,0)	(1,0)	(1,0)	(1,0)	(1,0)	(1,0)	
L1D -417>	(-10,125)	(0,1)	(31,2)	(417,1)	(418,0)	(1,0)	(1,0)	(1,0)	(1,0)	(1,0)	(1,0)	(1,0)	(1,0)	(1,0)	(1,0)	(1,0)	
L1D -416>	(1,4)	(0,2)	(415,1)	(53,1)	(416,5)	(5,1)	(28,1)	(404,1)	(58,1)	(-20,1)	(-1,5)	(417,2)	(324,1)	(-46,1)	(1,0)	(1,0)	
L1D -415>	(1,93)	(14,1)	(-3,1)	(62,1)	(2,1)	(414,1)	(1,0)	(1,0)	(1,0)	(1,0)	(1,0)	(1,0)	(1,0)	(1,0)	(1,0)	(1,0)	
L1D -414>	(1,101)	(414,1)	(5,1)	(53,1)	(380,1)	(402,1)	(1,0)	(1,0)	(1,0)	(1,0)	(1,0)	(1,0)	(1,0)	(1,0)	(1,0)	(1,0)	
L1D -413>	(1,51)	(2,4)	(0,3)	(413,5)	(-1,4)	(-7,1)	(412,1)	(153,1)	(414,2)	(11,2)	(5,1)	(1,0)	(1,0)	(1,0)	(1,0)	(1,0)	
L1D -412>	(61,1)	(0,4)	(310,1)	(-1,8)	(412,8)	(413,1)	(1,5)	(146,1)	(394,5)	(5,1)	(47,1)	(1,0)	(1,0)	(1,0)	(1,0)	(1,0)	
L1D -411>	(0,108)	(160,1)	(-7,13)	(-1,0)	(1,0)	(1,0)	(1,0)	(1,0)	(1,0)	(1,0)	(1,0)	(1,0)	(1,0)	(1,0)	(1,0)	(1,0)	
L1D -410>	(53,1)	(410,8)	(0,6)	(1,1)	(146,1)	(5,1)	(409,1)	(420,1)	(103,1)	(3,2)	(-10,1)	(1,0)	(1,0)	(1,0)	(1,0)	(1,0)	
L1D -409>	(410,1)	(7,1)	(15,1)	(2,1)	(409,4)	(-1,1)	(1,1)	(0,1)	(3,1)	(1,0)	(1,0)	(1,0)	(1,0)	(1,0)	(1,0)	(1,0)	
L1D -408>	(390,2)	(0,6)	(409,4)	(366,1)	(1,3)	(344,1)	(37,1)	(38,1)	(-1,1)	(408,1)	(1,0)	(1,0)	(1,0)	(1,0)	(1,0)	(1,0)	
L1D -407>	(1,6)	(56,2)	(407,3)	(135,1)	(388,1)	(454,1)	(-7,1)	(-30,1)	(198,1)	(2,1)	(0,2)	(-13,1)	(1,0)	(1,0)	(1,0)	(1,0)	
L1D -406>	(-1,1)	(394,8)	(420,2)	(1,3)	(397,1)	(0,10)	(406,5)	(407,1)	(10,1)	(268,1)	(1,0)	(1,0)	(1,0)	(1,0)	(1,0)	(1,0)	
L1D -405>	(165,7)	(1,5)	(181,1)	(0,6)	(91,2)	(365,2)	(405,3)	(385,1)	(2,3)	(345,5)	(406,2)	(17,1)	(5,2)	(379,1)	(1,0)	(1,0)	
L1D -404>	(-1,1)	(405,3)	(-28,1)	(8,1)	(392,4)	(0,5)	(403,1)	(382,2)	(-10,1)	(2,2)	(1,2)	(404,1)	(1,0)	(1,0)	(1,0)	(1,0)	
L1D -403>	(1,2)	(-1,3)	(0,3)	(15,1)	(403,2)	(159,1)	(27,1)	(368,1)	(61,1)	(409,1)	(-10,1)	(1,0)	(1,0)	(1,0)	(1,0)	(1,0)	
L1D -402>	(0,6)	(400,1)	(238,1)	(-70,1)	(68,1)	(388,63)	(-56,1)	(402,3)	(-2,1)	(1,3)	(396,1)	(-1,2)	(390,2)	(382,1)	(4,1)	(6,1)	
L1D -401>	(1,3)	(-10,3)	(0,3)	(2,2)	(401,4)	(14,1)	(56,1)	(1,0)	(1,0)	(1,0)	(1,0)	(1,0)	(1,0)	(1,0)	(1,0)	(1,0)	
L1D -400>	(0,7)	(134,1)	(388,1)	(401,4)	(400,4)	(392,1)	(2,1)	(-1,1)	(-9,1)	(374,1)	(3,2)	(406,1)	(-86,1)	(260,1)	(399,1)	(1,4)	
L1D -399>	(1,2)	(365,2)	(5,2)	(399,2)	(0,4)	(400,1)	(17,1)	(-27,30)	(16,1)	(396,1)	(-1,2)	(395,1)	(1,0)	(1,0)	(1,0)	(1,0)	
L1D -398>	(0,7)	(-84,1)	(-95,1)	(-38,5)	(502,1)	(1,3)	(386,1)	(406,1)	(274,1)	(2,1)	(32,1)	(17,1)	(398,4)	(85,1)	(388,1)	(395,1)	
L1D -397>	(9,1)	(398,2)	(1,1)	(0,1)	(397,2)	(2,1)	(26,1)	(-43,1)	(1,0)	(1,0)	(1,0)	(1,0)	(1,0)	(1,0)	(1,0)	(1,0)	
L1D -396>	(0,7)	(148,2)	(388,2)	(1,4)	(28,1)	(396,5)	(397,2)	(-14,1)	(-58,1)	(-1,1)	(5,1)	(424,1)	(91,1)	(1,0)	(1,0)	(1,0)	
L1D -395>	(397,38)	(1,2)	(83,1)	(395,4)	(2,1)	(0,2)	(17,1)	(27,1)	(9,5)	(5,1)	(3,1)	(-1,1)	(-61,1)	(1,0)	(1,0)	(1,0)	
L1D -394>	(37,1)	(376,3)	(0,6)	(71,1)	(-1,2)	(1,4)	(3,1)	(394,3)	(413,1)	(-78,1)	(1,0)	(1,0)	(1,0)	(1,0)	(1,0)	(1,0)	
L1D -393>	(8,127)	(0,3)	(21,2)	(1,2)	(422,1)	(324,1)	(393,3)	(5,1)	(-7,1)	(2,2)	(-1,1)	(1,0)	(1,0)	(1,0)	(1,0)	(1,0)	
L1D -392>	(70,57)	(0,4)	(393,4)	(6,4)	(392,1)	(160,1)	(1,9)	(5,2)	(391,1)	(-1,2)	(380,1)	(1,0)	(1,0)	(1,0)	(1,0)	(1,0)	
L1D -391>	(20,96)	(392,1)	(-60,1)	(-4,0)	(1,0)	(1,0)	(1,0)	(1,0)	(1,0)	(1,0)	(1,0)	(1,0)	(1,0)	(1,0)	(1,0)	(1,0)	
L1D -390>	(26,127)	(0,8)	(364,1)	(389,3)	(24,1)	(391,1)	(390,4)	(2,1)	(5,2)	(392,1)	(-5,1)	(1,1)	(258,1)	(-1,4)	(-10,1)	(324,1)	
L1D -389>	(0,3)	(-4,1)	(-1,5)	(390,2)	(414,1)	(-69,1)	(1,2)	(1,0)	(1,0)	(1,0)	(1,0)	(1,0)	(1,0)	(1,0)	(1,0)	(1,0)	
L1D -388>	(148,5)	(267,50)	(0,5)	(-1,1)	(1,2)	(126,1)	(18,4)	(380,2)	(374,1)	(388,1)	(389,4)	(376,1)	(352,1)	(1,0)	(1,0)	(1,0)	
L1D -387>	(1,3)	(2,1)	(114,22)	(-1,3)	(387,2)	(152,2)	(-10,1)	(56,2)	(-41,1)	(386,1)	(414,1)	(0,1)	(1,0)	(1,0)	(1,0)	(1,0)	
L1D -386>	(386,79)	(0,15)	(387,0)	(-31,10)	(-1,0)	(1,0)	(1,0)	(1,0)	(1,0)	(1,0)	(1,0)	(1,0)	(1,0)	(1,0)	(1,0)	(1,0)	
L1D -385>	(-6,1)	(386,1)	(385,2)	(6,5)	(2,3)	(12,8)	(-12,6)	(15,4)	(150,1)	(1,1)	(-3,1)	(345,3)	(0,3)	(5,1)	(1,0)	(1,0)	
L1D -384>	(0,3)	(1,6)	(-1,5)	(221,2)	(372,2)	(406,1)	(68,1)	(26,1)	(174,1)	(385,2)	(410,1)	(403,1)	(384,1)	(1,0)	(1,0)	(1,0)	
L1D -383>	(0,4)	(90,2)	(-1,13)	(383,2)	(382,1)	(14,1)	(1,0)	(1,0)	(1,0)	(1,0)	(1,0)	(1,0)	(1,0)	(1,0)	(1,0)	(1,0)	
L1D -382>	(394,1)	(0,6)	(30,3)	(388,2)	(-1,1)	(382,3)	(26,1)	(1,1)	(146,1)	(-94,1)	(1,0)	(1,0)	(1,0)	(1,0)	(1,0)	(1,0)	
L1D -381>	(0,4)	(114,109)	(152,6)	(357,1)	(-1,3)	(126,1)	(82,2)	(29,1)	(44,1)	(85,1)	(414,1)	(382,1)	(-4,1)	(1,0)	(1,0)	(1,0)	
L1D -380>	(380,4)	(294,2)	(-1,2)	(381,2)	(0,4)	(6,2)	(-38,1)	(1,3)	(342,1)	(24,1)	(1,0)	(1,0)	(1,0)	(1,0)	(1,0)	(1,0)	
L1D -379>	(379,2)	(0,3)	(-5,1)	(-1,3)	(1,2)	(186,1)	(-21,1)	(2,1)	(99,1)	(1,0)	(1,0)	(1,0)	(1,0)	(1,0)	(1,0)	(1,0)	
L1D -378>	(3,1)	(-1,2)	(0,5)	(160,1)	(-98,1)	(376,1)	(128,1)	(4,1)	(-14,1)	(378,1)	(1,1)	(1,0)	(1,0)	(1,0)	(1,0)	(1,0)	
L1D -377>	(341,4)	(1,3)	(166,1)	(0,3)	(366,1)	(344,1)	(110,4)	(377,4)	(-7,1)	(-1,1)	(1,0)	(1,0)	(1,0)	(1,0)	(1,0)	(1,0)	
L1D -376>	(0,5)	(2,1)	(14,1)	(377,3)	(1,2)	(364,1)	(382,1)	(1,0)	(1,0)	(1,0)	(1,0)	(1,0)	(1,0)	(1,0)	(1,0)	(1,0)	
L1D -375>	(2,1)	(1,3)	(338,1)	(87,1)	(0,5)	(375,1)	(448,1)	(1,0)	(1,0)	(1,0)	(1,0)	(1,0)	(1,0)	(1,0)	(1,0)	(1,0)	
L1D -374>	(6,2)	(1,4)	(0,5)	(2,2)	(18,1)	(30,1)	(50,2)	(222,1)	(1,0)	(1,0)	(1,0)	(1,0)	(1,0)	(1,0)	(1,0)	(1,0)	
L1D -373>	(1,2)	(0,4)	(121,1)	(373,2)	(6,1)	(-24,1)	(4,1)	(-1,2)	(1,0)	(1,0)	(1,0)	(1,0)	(1,0)	(1,0)	(1,0)	(1,0)	
L1D -372>	(-21,92)	(-45,1)	(-13,0)	(20,0)	(1,0)	(1,0)	(1,0)	(1,0)	(1,0)	(1,0)	(1,0)	(1,0)	(1,0)	(1,0)	(1,0)	(1,0)	
L1D -371>	(72,10)	(1,5)	(0,7)	(-24,4)	(-20,3)	(-1,3)	(214,1)	(371,3)	(-15,3)	(127,1)	(124,1)	(60,1)	(195,1)	(56,1)	(1,0)	(1,0)	
L1D -370>	(234,34)	(140,11)	(184,28)	(6,1)	(370,4)	(25,25)	(8,3)	(1,3)	(-9,1)	(0,2)	(192,1)	(3,1)	(-1,1)	(4,2)	(2,1)	(416,1)	
L1D -369>	(39,1)	(-1,9)	(4,1)	(2,3)	(0,1)	(369,1)	(-7,1)	(3,1)	(412,1)	(1,0)	(1,0)	(1,0)	(1,0)	(1,0)	(1,0)	(1,0)	
L1D -368>	(-4,9)	(366,11)	(0,4)	(368,3)	(-3,1)	(-1,1)	(-30,1)	(1,2)	(98,1)	(1,0)	(1,0)	(1,0)	(1,0)	(1,0)	(1,0)	(1,0)	
L1D -367>	(0,2)	(6,1)	(369,1)	(5,2)	(24,1)	(62,1)	(1,2)	(-7,1)	(17,2)	(2,2)	(368,1)	(108,1)	(1,0)	(1,0)	(1,0)	(1,0)	
L1D -366>	(6,3)	(0,6)	(3,6)	(5,2)	(78,4)	(385,1)	(-18,1)	(320,1)	(1,1)	(4,1)	(370,1)	(418,1)	(1,0)	(1,0)	(1,0)	(1,0)	
L1D -365>	(60,16)	(369,2)	(-1,2)	(4,1)	(0,4)	(335,1)	(366,2)	(45,1)	(1,2)	(365,1)	(362,1)	(2,1)	(1,0)	(1,0)	(1,0)	(1,0)	
L1D -364>	(268,120)	(0,1)	(360,1)	(50,2)	(52,8)	(-26,2)	(51,18)	(363,5)	(361,1)	(-1,2)	(78,1)	(1,1)	(48,3)	(362,1)	(1,0)	(1,0)	
L1D -363>	(403,4)	(1,5)	(51,97)	(175,2)	(360,3)	(83,2)	(46,1)	(3,1)	(361,9)	(75,61)	(355,3)	(345,10)	(5,2)	(-1,19)	(367,2)	(0,5)	
L1D -362>	(360,50)	(45,2)	(1,3)	(50,34)	(47,3)	(52,3)	(69,1)	(51,6)	(0,6)	(27,3)	(17,2)	(-35,1)	(230,1)	(341,4)	(400,1)	(359,2)	
L1D -361>	(50,7)	(51,4)	(44,2)	(1,5)	(49,3)	(354,1)	(0,3)	(361,1)	(107,1)	(91,1)	(62,2)	(265,1)	(95,2)	(358,1)	(345,5)	(343,5)	
L1D -360>	(298,112)	(47,15)	(296,5)	(130,1)	(51,9)	(358,1)	(359,3)	(0,3)	(48,27)	(-1,8)	(45,3)	(351,1)	(40,2)	(64,4)	(1,4)	(357,1)	
L1D -359>	(60,76)	(1,1)	(47,27)	(0,3)	(-1,9)	(39,4)	(347,1)	(35,1)	(358,2)	(357,2)	(46,1)	(356,1)	(346,1)	(51,2)	(363,1)	(341,0)	
L1D -358>	(49,2)	(46,2)	(356,122)	(27,1)	(357,1)	(47,1)	(364,1)	(352,1)	(48,1)	(1,1)	(358,1)	(1,0)	(1,0)	(1,0)	(1,0)	(1,0)	
L1D -357>	(351,4)	(364,4)	(5,4)	(357,2)	(51,2)	(350,2)	(47,4)	(48,2)	(46,2)	(42,3)	(352,2)	(45,6)	(347,1)	(0,3)	(353,1)	(37,1)	
L1D -356>	(-31,9)	(262,21)	(70,13)	(44,4)	(349,2)	(364,5)	(361,4)	(343,7)	(38,1)	(357,2)	(192,1)	(47,10)	(347,1)	(41,1)	(48,2)	(24,1)	
L1D -355>	(35,1)	(41,1)	(344,2)	(215,79)	(365,18)	(364,1)	(-14,1)	(2,0)	(353,0)	(342,0)	(359,0)	(360,1)	(56,0)	(1,1)	(1,0)	(1,0)	
L1D -354>	(360,1)	(0,1)	(335,1)	(52,1)	(268,0)	(364,0)	(-42,0)	(154,0)	(396,1)	(402,0)	(292,0)	(232,0)	(388,122)	(398,1)	(378,2)	(337,0)	
L1D -353>	(352,3)	(342,9)	(6,1)	(24,1)	(0,4)	(-16,1)	(64,1)	(47,3)	(343,1)	(347,1)	(360,5)	(348,1)	(349,4)	(107,1)	(362,2)	(41,6)	
L1D -352>	(142,1)	(220,92)	(-1,2)	(-30,3)	(88,1)	(352,1)	(355,1)	(0,1)	(364,3)	(1,1)	(162,1)	(212,0)	(264,0)	(124,1)	(2,0)	(218,0)	
L1D -351>	(317,2)	(213,2)	(95,4)	(265,4)	(1,4)	(364,5)	(361,11)	(24,2)	(44,2)	(338,2)	(39,3)	(0,3)	(69,1)	(360,6)	(43,1)	(349,1)	
L1D -350>	(1,83)	(126,2)	(363,1)	(-6,1)	(20,1)	(420,1)	(-3,1)	(38,1)	(1,0)	(1,0)	(1,0)	(1,0)	(1,0)	(1,0)	(1,0)	(1,0)	
L1D -349>	(181,5)	(361,2)	(48,2)	(351,2)	(49,1)	(-1,14)	(0,4)	(81,1)	(-108,1)	(37,5)	(350,1)	(42,1)	(89,2)	(338,4)	(358,2)	(364,3)	
L1D -348>	(4,26)	(212,4)	(12,2)	(50,2)	(0,8)	(258,6)	(347,37)	(256,15)	(-16,3)	(364,1)	(28,35)	(2,1)	(348,1)	(26,2)	(360,4)	(6,1)	
L1D -347>	(175,17)	(174,0)	(3,10)	(2,2)	(347,0)	(4,0)	(346,0)	(172,79)	(83,0)	(348,0)	(-1,0)	(344,22)	(6,1)	(364,0)	(345,0)	(360,0)	
L1D -346>	(0,7)	(254,19)	(345,49)	(344,29)	(342,3)	(343,5)	(3,8)	(174,48)	(359,1)	(363,0)	(172,101)	(4,71)	(341,20)	(5,3)	(1,6)	(2,6)	
L1D -345>	(3,2)	(173,1)	(364,1)	(344,22)	(345,11)	(174,0)	(342,2)	(346,6)	(171,0)	(1,0)	(2,1)	(169,1)	(347,0)	(348,2)	(172,127)	(301,0)	
L1D -344>	(1,7)	(0,0)	(172,57)	(-1,13)	(170,0)	(2,54)	(173,71)	(174,0)	(32,0)	(3,31)	(169,0)	(4,30)	(-2,19)	(179,0)	(345,16)	(344,4)	
L1D -343>	(346,1)	(342,1)	(341,1)	(345,1)	(172,104)	(171,5)	(347,0)	(-3,0)	(169,0)	(-1,63)	(-2,0)	(2,0)	(344,10)	(173,0)	(168,0)	(1,3)	
L1D -342>	(313,6)	(170,99)	(1,4)	(-1,19)	(-5,5)	(344,19)	(346,10)	(-4,36)	(171,111)	(343,20)	(2,9)	(0,1)	(172,77)	(345,6)	(-2,7)	(337,1)	
L1D -341>	(172,87)	(1,1)	(0,15)	(4,23)	(344,35)	(-3,11)	(5,14)	(342,12)	(170,35)	(-1,7)	(-2,3)	(171,2)	(169,47)	(343,0)	(341,5)	(345,1)	
L1D -340>	(341,10)	(343,8)	(171,55)	(168,12)	(359,0)	(364,1)	(169,84)	(172,11)	(-4,3)	(334,0)	(-1,9)	(28,0)	(344,6)	(0,1)	(1,1)	(3,0)	
L1D -339>	(397,48)	(170,12)	(189,2)	(310,2)	(399,6)	(27,16)	(357,2)	(336,7)	(-1,12)	(337,3)	(338,16)	(1,1)	(0,3)	(169,5)	(26,33)	(22,3)	
L1D -338>	(78,37)	(-1,51)	(1,19)	(306,4)	(24,55)	(25,1)	(-14,111)	(-3,66)	(8,7)	(4,26)	(-12,12)	(173,8)	(343,11)	(304,51)	(-2,7)	(316,26)	
L1D -337>	(342,79)	(104,4)	(117,106)	(-4,30)	(167,13)	(114,90)	(0,1)	(344,19)	(-1,48)	(335,1)	(172,95)	(315,0)	(24,1)	(25,3)	(26,4)	(2,0)	
L1D -336>	(212,119)	(341,1)	(338,1)	(20,2)	(24,4)	(337,1)	(23,1)	(364,1)	(1,1)	(220,1)	(4,0)	(254,0)	(192,0)	(228,0)	(200,0)	(313,1)	
L1D -335>	(-2,18)	(172,89)	(-1,92)	(23,14)	(0,4)	(313,7)	(334,11)	(-172,8)	(6,1)	(315,1)	(18,1)	(162,1)	(34,1)	(42,1)	(360,2)	(92,1)	
L1D -334>	(0,5)	(334,1)	(66,5)	(14,8)	(22,8)	(316,5)	(313,7)	(4,1)	(360,2)	(23,1)	(336,2)	(27,2)	(332,1)	(338,6)	(75,1)	(92,1)	
L1D -333>	(0,3)	(334,3)	(27,4)	(1,5)	(313,6)	(-36,1)	(24,1)	(-1,2)	(54,1)	(332,7)	(21,12)	(92,1)	(-61,1)	(294,1)	(2,1)	(114,2)	
L1D -332>	(18,64)	(334,64)	(0,1)	(4,1)	(313,1)	(98,1)	(22,2)	(20,2)	(290,1)	(1,0)	(1,0)	(1,0)	(1,0)	(1,0)	(1,0)	(1,0)	
L1D -331>	(386,3)	(331,8)	(1,6)	(325,2)	(144,1)	(4,3)	(0,6)	(19,14)	(330,3)	(29,2)	(-137,2)	(313,4)	(490,1)	(-70,1)	(252,1)	(-1,19)	
L1D -330>	(329,1)	(108,1)	(228,1)	(37,2)	(-1,3)	(314,2)	(20,1)	(0,1)	(8,1)	(-22,101)	(338,20)	(300,4)	(18,2)	(232,8)	(4,1)	(313,2)	
L1D -329>	(3,65)	(145,1)	(-1,6)	(18,1)	(0,1)	(312,0)	(5,4)	(315,1)	(17,3)	(313,3)	(328,0)	(-28,0)	(1,0)	(1,0)	(1,0)	(1,0)	
L1D -328>	(15,71)	(328,1)	(22,59)	(326,0)	(54,0)	(331,0)	(0,1)	(313,0)	(4,1)	(308,0)	(16,2)	(216,17)	(116,2)	(1,0)	(-32,0)	(1,0)	
L1D -327>	(1,2)	(0,7)	(15,14)	(6,1)	(5,1)	(-1,3)	(454,1)	(56,1)	(313,15)	(325,5)	(14,3)	(24,1)	(89,1)	(16,2)	(90,1)	(84,1)	
L1D -326>	(1,125)	(14,3)	(324,2)	(13,1)	(11,1)	(-3,4)	(96,9)	(140,1)	(313,7)	(318,2)	(1,0)	(1,0)	(1,0)	(1,0)	(1,0)	(1,0)	
L1D -325>	(1,107)	(139,1)	(13,95)	(-15,4)	(-14,16)	(111,1)	(60,3)	(0,1)	(313,4)	(322,1)	(15,1)	(323,1)	(58,1)	(12,2)	(1,0)	(1,0)	
L1D -324>	(313,1)	(12,2)	(60,1)	(58,1)	(38,1)	(1,14)	(238,114)	(20,2)	(322,2)	(1,0)	(1,0)	(1,0)	(1,0)	(1,0)	(1,0)	(1,0)	
L1D -323>	(2,72)	(4,1)	(12,2)	(313,2)	(11,6)	(0,0)	(-6,0)	(1,0)	(1,0)	(1,0)	(1,0)	(1,0)	(1,0)	(1,0)	(1,0)	(1,0)	
L1D -322>	(280,4)	(74,77)	(314,69)	(197,78)	(1,1)	(313,1)	(320,1)	(232,1)	(326,2)	(20,1)	(0,3)	(86,1)	(96,1)	(302,70)	(10,1)	(2,0)	
L1D -321>	(215,19)	(2,2)	(1,3)	(0,10)	(-41,2)	(317,1)	(321,1)	(24,2)	(10,3)	(-5,1)	(9,6)	(47,1)	(313,4)	(40,1)	(112,1)	(316,1)	
L1D -320>	(78,4)	(313,3)	(102,9)	(-10,1)	(8,2)	(-44,1)	(-14,5)	(0,3)	(32,1)	(-16,1)	(314,0)	(214,2)	(52,4)	(90,5)	(-28,1)	(236,109)	
L1D -319>	(167,5)	(7,7)	(4,5)	(0,5)	(-18,28)	(361,11)	(318,4)	(265,117)	(1,1)	(20,3)	(24,1)	(6,3)	(317,11)	(-1,2)	(18,1)	(313,1)	
L1D -318>	(8,4)	(40,1)	(164,2)	(254,8)	(296,6)	(316,19)	(0,4)	(1,1)	(84,74)	(16,1)	(7,1)	(-28,15)	(352,2)	(323,1)	(244,0)	(313,1)	
L1D -317>	(23,2)	(2,6)	(319,4)	(345,25)	(7,4)	(315,10)	(265,23)	(314,17)	(-42,10)	(316,20)	(0,11)	(1,14)	(5,6)	(-41,1)	(313,25)	(6,14)	
L1D -316>	(106,99)	(0,1)	(30,3)	(310,4)	(298,1)	(-47,2)	(320,3)	(3,1)	(314,7)	(304,1)	(319,1)	(20,59)	(122,1)	(313,4)	(252,3)	(4,3)	
L1D -315>	(3,66)	(316,14)	(-45,14)	(-41,4)	(309,11)	(310,9)	(303,10)	(314,13)	(299,4)	(-25,5)	(6,5)	(-49,22)	(315,7)	(305,1)	(311,35)	(312,7)	
L1D -314>	(272,116)	(5,13)	(270,2)	(298,105)	(206,2)	(310,12)	(106,4)	(2,5)	(0,1)	(274,3)	(24,1)	(198,3)	(98,3)	(1,4)	(-24,3)	(-3,1)	
L1D -313>	(0,13)	(313,93)	(-2,18)	(310,78)	(-40,1)	(6,4)	(314,37)	(309,35)	(311,124)	(305,16)	(317,5)	(308,20)	(298,19)	(312,43)	(303,9)	(1,22)	
L1D -312>	(305,79)	(314,79)	(-52,54)	(318,69)	(307,26)	(350,7)	(-26,11)	(308,37)	(310,87)	(-1,36)	(309,108)	(311,119)	(317,48)	(2,47)	(-27,1)	(315,100)	
L1D -311>	(294,28)	(293,1)	(-6,5)	(332,6)	(-37,3)	(-1,112)	(308,9)	(318,14)	(-2,2)	(319,9)	(324,1)	(14,3)	(288,1)	(314,19)	(5,4)	(313,26)	
L1D -310>	(148,2)	(354,2)	(336,2)	(311,1)	(3,1)	(0,1)	(5,1)	(258,3)	(304,5)	(302,3)	(-2,75)	(313,5)	(312,11)	(4,1)	(208,21)	(108,19)	
L1D -309>	(-48,12)	(313,10)	(-27,1)	(3,3)	(316,59)	(311,6)	(-3,43)	(312,8)	(305,4)	(-52,18)	(-1,5)	(310,10)	(0,5)	(307,9)	(-13,2)	(11,2)	
L1D -308>	(248,1)	(260,126)	(270,97)	(258,2)	(222,1)	(-24,4)	(308,1)	(122,1)	(12,1)	(-4,9)	(244,7)	(-52,3)	(82,4)	(319,2)	(310,2)	(1,1)	
L1D -307>	(0,6)	(264,1)	(6,1)	(-5,14)	(258,1)	(312,8)	(-1,4)	(309,1)	(-27,3)	(320,2)	(307,2)	(-48,1)	(311,3)	(-4,3)	(316,1)	(310,6)	
L1D -306>	(312,1)	(0,82)	(-1,1)	(316,0)	(8,0)	(-42,0)	(306,11)	(295,0)	(52,0)	(411,0)	(304,0)	(1,0)	(1,0)	(1,0)	(1,0)	(1,0)	
L1D -305>	(306,6)	(1,2)	(318,1)	(13,2)	(0,3)	(310,1)	(321,2)	(12,84)	(-9,3)	(291,1)	(-3,1)	(307,4)	(345,1)	(-7,2)	(311,4)	(2,1)	
L1D -304>	(-8,10)	(28,19)	(74,6)	(20,5)	(4,1)	(-7,4)	(306,7)	(310,2)	(323,8)	(0,7)	(311,11)	(354,37)	(-22,33)	(208,61)	(258,112)	(305,3)	
L1D -303>	(68,94)	(4,1)	(14,1)	(-36,1)	(140,1)	(260,8)	(154,1)	(308,2)	(-8,1)	(-9,3)	(324,1)	(1,1)	(6,1)	(323,1)	(-1,1)	(1,0)	
L1D -302>	(158,6)	(323,1)	(311,2)	(-8,1)	(303,1)	(304,2)	(210,1)	(-10,4)	(-39,2)	(0,2)	(96,106)	(308,1)	(307,1)	(188,2)	(-6,1)	(274,0)	
L1D -301>	(2,2)	(6,6)	(0,9)	(307,2)	(-11,13)	(-4,10)	(303,8)	(306,5)	(347,5)	(304,4)	(311,15)	(308,2)	(327,1)	(-1,6)	(26,2)	(325,10)	
L1D -300>	(66,39)	(-22,41)	(115,3)	(338,87)	(104,3)	(-8,2)	(327,5)	(-1,4)	(192,2)	(-10,5)	(301,5)	(242,95)	(-12,16)	(6,1)	(-38,2)	(311,7)	
L1D -299>	(321,69)	(327,10)	(-2,3)	(-13,8)	(310,9)	(311,17)	(14,4)	(-1,5)	(89,1)	(0,10)	(-11,8)	(6,2)	(2,7)	(301,4)	(324,3)	(1,4)	
L1D -298>	(254,5)	(-80,1)	(314,1)	(-14,4)	(311,1)	(299,4)	(-22,0)	(296,0)	(154,0)	(318,0)	(188,70)	(250,9)	(0,3)	(1,0)	(1,0)	(1,0)	
L1D -297>	(26,7)	(-20,2)	(0,12)	(24,7)	(-15,17)	(327,10)	(6,5)	(-14,1)	(-2,1)	(225,1)	(-1,3)	(311,14)	(2,1)	(296,1)	(49,1)	(260,1)	
L1D -296>	(42,7)	(294,9)	(26,19)	(338,8)	(14,1)	(267,105)	(200,42)	(-22,122)	(297,3)	(256,37)	(-12,2)	(250,8)	(-2,4)	(311,8)	(0,8)	(309,2)	
L1D -295>	(0,4)	(6,10)	(311,9)	(-1,2)	(-4,2)	(19,3)	(9,2)	(77,1)	(2,1)	(-17,16)	(18,1)	(47,2)	(309,2)	(297,3)	(1,1)	(299,1)	
L1D -294>	(296,1)	(0,4)	(166,108)	(83,1)	(250,95)	(311,4)	(298,1)	(364,2)	(299,1)	(295,2)	(70,4)	(44,2)	(-50,1)	(-20,0)	(32,18)	(72,0)	
L1D -293>	(1,3)	(0,5)	(297,1)	(319,122)	(317,37)	(-20,49)	(345,52)	(24,3)	(5,1)	(-12,7)	(6,1)	(35,1)	(22,1)	(26,2)	(-19,1)	(-1,1)	
L1D -292>	(154,1)	(-13,81)	(8,1)	(2,1)	(-21,1)	(-20,1)	(380,1)	(-1,1)	(10,1)	(318,68)	(1,1)	(212,0)	(244,0)	(294,2)	(300,0)	(40,1)	
L1D -291>	(292,3)	(0,11)	(1,4)	(5,94)	(-20,8)	(-4,3)	(-1,14)	(20,1)	(291,2)	(295,2)	(311,4)	(21,6)	(309,2)	(293,3)	(6,1)	(-21,3)	
L1D -290>	(1,1)	(42,71)	(-14,1)	(0,1)	(212,7)	(2,1)	(30,13)	(14,1)	(116,106)	(10,14)	(40,5)	(244,1)	(-22,0)	(264,0)	(224,0)	(262,0)	
L1D -289>	(-2,2)	(6,4)	(0,9)	(19,1)	(-22,2)	(289,2)	(-1,5)	(27,1)	(2,1)	(320,1)	(1,2)	(24,3)	(-23,1)	(248,1)	(41,1)	(14,1)	
L1D -288>	(308,111)	(-28,7)	(2,2)	(-1,5)	(136,89)	(10,100)	(1,11)	(289,1)	(218,5)	(418,1)	(14,4)	(0,13)	(6,2)	(20,2)	(-68,1)	(68,1)	
L1D -287>	(-1,12)	(0,21)	(24,4)	(286,1)	(2,3)	(18,1)	(-14,1)	(6,4)	(-25,2)	(422,1)	(26,1)	(262,1)	(291,3)	(1,1)	(-20,1)	(46,1)	
L1D -286>	(287,1)	(308,94)	(-94,1)	(13,2)	(1,1)	(2,1)	(284,2)	(20,0)	(270,0)	(106,0)	(38,0)	(288,0)	(26,0)	(100,0)	(0,0)	(298,0)	
L1D -285>	(74,1)	(6,7)	(3,10)	(0,15)	(2,1)	(24,3)	(37,7)	(285,2)	(-20,2)	(1,4)	(-64,1)	(13,1)	(289,1)	(242,1)	(1,0)	(1,0)	
L1D -284>	(206,1)	(6,1)	(4,1)	(112,1)	(114,0)	(272,0)	(308,1)	(40,2)	(350,0)	(268,0)	(66,1)	(19,0)	(0,1)	(303,1)	(64,85)	(212,89)	
L1D -283>	(212,26)	(218,10)	(186,10)	(283,1)	(102,5)	(12,1)	(1,1)	(311,1)	(72,101)	(64,9)	(96,10)	(268,0)	(19,1)	(238,0)	(0,3)	(285,1)	
L1D -282>	(0,3)	(287,2)	(113,1)	(188,1)	(70,0)	(114,0)	(318,22)	(308,123)	(106,59)	(218,0)	(98,8)	(222,0)	(19,0)	(20,0)	(1,3)	(1,0)	
L1D -281>	(1,3)	(6,6)	(0,13)	(281,1)	(24,7)	(19,1)	(26,1)	(285,1)	(-20,3)	(76,1)	(29,1)	(-2,1)	(270,1)	(256,1)	(4,1)	(1,0)	
L1D -280>	(0,1)	(-12,116)	(100,1)	(92,3)	(146,47)	(206,2)	(264,1)	(8,3)	(320,1)	(246,1)	(160,101)	(230,4)	(238,1)	(278,3)	(198,11)	(114,1)	
L1D -279>	(26,2)	(256,1)	(0,21)	(24,9)	(1,2)	(6,2)	(8,24)	(7,2)	(-1,4)	(279,3)	(2,1)	(281,2)	(283,2)	(18,1)	(275,2)	(-7,1)	
L1D -278>	(20,1)	(312,103)	(19,4)	(318,1)	(12,1)	(304,2)	(1,2)	(5,1)	(214,1)	(2,1)	(16,1)	(283,1)	(292,0)	(-32,0)	(360,113)	(-2,0)	
L1D -277>	(0,95)	(277,4)	(273,30)	(240,1)	(296,0)	(248,0)	(-6,0)	(-20,0)	(1,0)	(1,0)	(1,0)	(1,0)	(1,0)	(1,0)	(1,0)	(1,0)	
L1D -276>	(2,7)	(186,14)	(1,3)	(274,2)	(226,2)	(18,3)	(0,9)	(20,8)	(279,3)	(276,2)	(4,5)	(-92,39)	(6,2)	(19,5)	(230,97)	(204,34)	
L1D -275>	(212,76)	(277,27)	(6,1)	(-6,0)	(90,0)	(0,3)	(58,2)	(66,1)	(8,0)	(28,0)	(1,1)	(1,0)	(1,0)	(1,0)	(1,0)	(1,0)	
L1D -274>	(166,3)	(-31,6)	(136,8)	(186,3)	(0,14)	(68,2)	(122,56)	(106,12)	(1,1)	(78,110)	(2,21)	(291,38)	(20,2)	(279,4)	(8,20)	(38,1)	
L1D -273>	(277,91)	(234,1)	(263,1)	(6,3)	(411,3)	(17,1)	(412,2)	(0,5)	(275,0)	(273,2)	(420,4)	(-1,0)	(9,0)	(1,1)	(1,0)	(1,0)	
L1D -272>	(-54,64)	(303,46)	(-10,12)	(275,1)	(80,48)	(289,2)	(312,32)	(268,4)	(272,1)	(72,19)	(118,2)	(306,1)	(96,2)	(242,1)	(162,1)	(0,3)	
L1D -271>	(271,10)	(0,34)	(26,2)	(254,3)	(24,2)	(-1,5)	(275,3)	(242,2)	(2,3)	(19,2)	(6,3)	(1,4)	(14,1)	(273,1)	(270,1)	(276,1)	
L1D -270>	(-21,70)	(20,1)	(-16,1)	(-12,1)	(0,35)	(202,1)	(275,1)	(222,1)	(348,0)	(272,0)	(204,0)	(16,0)	(350,0)	(7,0)	(266,0)	(1,0)	
L1D -269>	(26,6)	(269,4)	(3,119)	(4,1)	(6,2)	(19,1)	(0,7)	(1,1)	(410,1)	(268,6)	(-20,2)	(29,1)	(271,2)	(24,2)	(13,12)	(41,1)	
L1D -268>	(10,1)	(4,6)	(298,18)	(290,31)	(40,124)	(30,1)	(198,9)	(172,90)	(-20,1)	(19,3)	(0,5)	(269,6)	(20,7)	(-52,2)	(200,9)	(313,4)	
L1D -267>	(158,25)	(0,8)	(196,6)	(337,4)	(240,7)	(271,1)	(420,47)	(58,1)	(412,43)	(263,5)	(19,1)	(24,6)	(411,15)	(180,87)	(284,36)	(212,4)	
L1D -266>	(19,6)	(212,3)	(168,115)	(277,1)	(198,1)	(96,40)	(-95,1)	(2,1)	(0,16)	(266,2)	(4,2)	(72,8)	(328,4)	(1,1)	(138,1)	(-20,3)	
L1D -265>	(95,1)	(9,1)	(167,82)	(-3,5)	(-1,1)	(0,1)	(138,1)	(2,1)	(24,1)	(361,2)	(240,1)	(264,65)	(-20,1)	(262,1)	(17,0)	(1,2)	
L1D -264>	(-16,2)	(218,8)	(266,5)	(224,80)	(230,37)	(36,3)	(2,5)	(0,2)	(-6,25)	(234,1)	(82,15)	(5,11)	(24,1)	(20,75)	(286,46)	(238,93)	
L1D -263>	(29,2)	(-1,3)	(24,19)	(26,5)	(1,19)	(0,32)	(267,2)	(263,1)	(432,1)	(277,1)	(-42,6)	(361,3)	(-20,4)	(2,2)	(-3,2)	(19,4)	
L1D -262>	(267,15)	(-3,89)	(3,51)	(166,8)	(312,8)	(152,8)	(268,17)	(18,23)	(116,53)	(6,1)	(306,17)	(62,8)	(234,17)	(338,93)	(328,116)	(260,23)	
L1D -261>	(24,8)	(26,28)	(6,6)	(0,15)	(1,7)	(292,1)	(-20,2)	(103,56)	(254,1)	(3,2)	(30,5)	(-1,1)	(261,6)	(260,1)	(252,1)	(10,4)	
L1D -260>	(-17,1)	(152,94)	(288,12)	(-54,2)	(-5,28)	(-12,1)	(380,5)	(-90,1)	(12,2)	(0,1)	(66,5)	(106,8)	(326,7)	(-78,2)	(168,1)	(308,1)	
L1D -259>	(3,12)	(1,10)	(0,14)	(-3,2)	(261,6)	(-5,36)	(220,8)	(24,8)	(23,2)	(259,5)	(13,2)	(239,1)	(218,2)	(10,5)	(2,2)	(6,2)	
L1D -258>	(115,121)	(1,19)	(219,2)	(38,11)	(262,119)	(112,112)	(20,1)	(66,41)	(172,1)	(230,1)	(62,78)	(252,3)	(-10,3)	(216,1)	(0,2)	(-8,1)	
L1D -257>	(0,51)	(98,77)	(19,0)	(99,3)	(6,0)	(60,91)	(240,0)	(-20,0)	(14,0)	(24,2)	(261,0)	(61,12)	(97,0)	(257,0)	(1,1)	(1,0)	
L1D -256>	(312,6)	(20,3)	(84,45)	(254,1)	(1,94)	(-20,1)	(-14,3)	(328,3)	(124,1)	(8,2)	(249,1)	(251,14)	(0,1)	(255,0)	(19,0)	(232,0)	
L1D -255>	(266,1)	(84,93)	(0,92)	(250,39)	(255,0)	(26,4)	(24,1)	(-9,0)	(19,1)	(20,1)	(257,1)	(42,0)	(-21,0)	(-20,1)	(179,0)	(259,2)	
L1D -254>	(2,25)	(352,27)	(24,4)	(233,1)	(272,25)	(254,3)	(-12,9)	(257,3)	(114,13)	(318,2)	(28,57)	(-52,4)	(20,44)	(316,41)	(26,7)	(-10,13)	
L1D -253>	(-1,13)	(2,1)	(253,12)	(1,8)	(6,3)	(29,1)	(0,18)	(17,2)	(3,2)	(7,1)	(-13,1)	(-20,7)	(-18,1)	(208,2)	(-22,1)	(252,2)	
L1D -252>	(20,1)	(386,81)	(0,1)	(-20,1)	(112,4)	(188,15)	(260,1)	(2,2)	(118,0)	(106,0)	(267,0)	(160,0)	(252,0)	(360,0)	(154,1)	(256,0)	
L1D -251>	(3,1)	(-20,1)	(13,0)	(0,0)	(1,68)	(-31,0)	(7,0)	(19,0)	(2,0)	(278,0)	(253,0)	(1,0)	(1,0)	(1,0)	(1,0)	(1,0)	
L1D -250>	(56,19)	(254,37)	(244,12)	(177,2)	(2,70)	(84,33)	(-20,2)	(-10,21)	(1,3)	(-40,23)	(19,1)	(0,5)	(-1,2)	(186,3)	(187,1)	(4,1)	
L1D -249>	(1,23)	(24,25)	(249,4)	(26,6)	(-1,22)	(2,2)	(-20,3)	(19,7)	(-36,19)	(6,3)	(0,14)	(186,1)	(-10,1)	(-40,2)	(-48,3)	(-76,1)	
L1D -248>	(-20,2)	(54,24)	(3,1)	(-12,36)	(19,4)	(0,3)	(190,81)	(289,1)	(286,2)	(20,9)	(-24,26)	(-37,2)	(288,4)	(16,5)	(-6,1)	(314,2)	
L1D -247>	(14,1)	(72,2)	(247,1)	(22,1)	(26,1)	(226,1)	(194,79)	(218,1)	(246,1)	(0,1)	(1,3)	(249,1)	(8,1)	(251,1)	(273,1)	(1,0)	
L1D -246>	(2,1)	(-76,104)	(12,2)	(4,1)	(220,70)	(239,1)	(272,5)	(20,2)	(154,5)	(142,1)	(238,5)	(247,2)	(248,1)	(0,1)	(19,8)	(182,1)	
L1D -245>	(250,110)	(-6,29)	(245,2)	(-9,0)	(0,5)	(13,30)	(42,0)	(41,0)	(24,4)	(26,0)	(-20,0)	(240,0)	(246,0)	(247,3)	(-32,0)	(1,0)	
L1D -244>	(48,14)	(150,1)	(19,1)	(338,1)	(-22,1)	(0,2)	(1,2)	(20,1)	(268,3)	(310,115)	(242,19)	(336,0)	(108,7)	(254,4)	(258,2)	(318,0)	
L1D -243>	(3,75)	(0,5)	(236,1)	(1,1)	(24,5)	(13,8)	(-26,0)	(4,1)	(245,0)	(242,1)	(204,0)	(243,1)	(-20,0)	(19,1)	(2,1)	(272,0)	
L1D -242>	(2,111)	(252,2)	(20,20)	(158,14)	(194,16)	(0,3)	(-78,1)	(260,4)	(48,8)	(12,1)	(176,2)	(314,1)	(-2,1)	(30,1)	(-80,1)	(18,2)	
L1D -241>	(24,25)	(241,23)	(26,54)	(1,4)	(270,1)	(0,20)	(232,4)	(88,1)	(19,2)	(145,1)	(2,1)	(-20,4)	(-6,1)	(3,3)	(-1,5)	(29,3)	
L1D -240>	(10,9)	(233,2)	(-10,70)	(28,3)	(19,2)	(-74,2)	(245,1)	(190,2)	(1,1)	(20,1)	(-212,1)	(2,1)	(38,3)	(116,2)	(4,1)	(0,3)	
L1D -239>	(239,46)	(-20,23)	(244,11)	(1,4)	(0,23)	(186,31)	(5,1)	(-192,1)	(2,3)	(238,1)	(280,1)	(241,2)	(240,1)	(19,4)	(9,1)	(28,1)	
L1D -238>	(231,1)	(8,4)	(198,1)	(20,3)	(16,6)	(44,104)	(298,1)	(0,1)	(-56,2)	(-20,2)	(292,1)	(280,6)	(308,5)	(1,5)	(2,3)	(12,5)	
L1D -237>	(-9,4)	(239,4)	(1,3)	(0,31)	(237,3)	(244,1)	(-20,8)	(6,4)	(342,1)	(7,2)	(-6,1)	(84,1)	(29,4)	(2,2)	(232,1)	(24,2)	
L1D -236>	(2,2)	(32,1)	(0,1)	(1,2)	(236,1)	(316,4)	(312,2)	(229,1)	(264,25)	(224,6)	(290,1)	(84,2)	(19,2)	(64,0)	(-18,0)	(278,113)	
L1D -235>	(302,115)	(6,2)	(374,1)	(228,1)	(235,4)	(24,1)	(0,2)	(2,7)	(242,1)	(1,0)	(1,0)	(1,0)	(1,0)	(1,0)	(1,0)	(1,0)	
L1D -234>	(275,1)	(318,116)	(246,1)	(20,1)	(114,49)	(220,4)	(26,1)	(-28,39)	(1,2)	(198,1)	(146,16)	(66,1)	(-94,4)	(0,4)	(19,1)	(-3,1)	
L1D -233>	(227,8)	(1,11)	(-20,9)	(24,23)	(235,3)	(233,30)	(26,7)	(0,17)	(229,4)	(29,3)	(240,5)	(234,1)	(3,5)	(80,1)	(-1,12)	(224,1)	
L1D -232>	(324,24)	(126,65)	(206,18)	(20,2)	(338,16)	(92,3)	(228,2)	(8,2)	(320,1)	(-92,45)	(-88,1)	(19,3)	(233,4)	(28,85)	(-20,4)	(120,5)	
L1D -231>	(7,5)	(202,2)	(232,3)	(231,2)	(1,10)	(0,23)	(3,90)	(29,1)	(233,5)	(224,2)	(-22,1)	(2,1)	(19,1)	(-1,7)	(6,2)	(235,2)	
L1D -230>	(194,14)	(115,88)	(16,4)	(14,56)	(214,5)	(-12,5)	(302,2)	(-84,2)	(44,70)	(190,8)	(20,3)	(248,6)	(304,2)	(4,1)	(8,70)	(338,4)	
L1D -229>	(0,81)	(374,8)	(24,2)	(-9,25)	(230,1)	(26,2)	(7,3)	(231,3)	(2,3)	(1,0)	(222,0)	(6,0)	(29,0)	(-20,0)	(236,0)	(255,0)	
L1D -228>	(1,1)	(66,2)	(314,2)	(208,1)	(226,6)	(200,1)	(302,3)	(252,2)	(144,1)	(96,5)	(128,4)	(162,73)	(-40,5)	(-124,1)	(250,11)	(206,79)	
L1D -227>	(227,27)	(0,14)	(1,15)	(-20,10)	(2,3)	(6,1)	(3,1)	(188,19)	(180,86)	(-1,4)	(47,2)	(229,6)	(20,1)	(24,1)	(5,1)	(19,2)	
L1D -226>	(122,97)	(20,1)	(90,1)	(187,5)	(288,1)	(-3,1)	(-20,1)	(62,1)	(6,1)	(324,0)	(164,0)	(272,0)	(54,0)	(-134,97)	(1,4)	(-28,1)	
L1D -225>	(225,65)	(24,20)	(26,3)	(29,4)	(19,3)	(1,9)	(-20,25)	(232,1)	(0,14)	(-1,1)	(2,2)	(17,1)	(3,2)	(180,4)	(-6,2)	(412,1)	
L1D -224>	(78,12)	(224,2)	(-102,89)	(68,1)	(19,2)	(223,1)	(-96,4)	(286,1)	(20,2)	(-94,0)	(84,1)	(-64,0)	(142,0)	(134,1)	(0,1)	(-16,1)	
L1D -223>	(0,19)	(225,2)	(2,6)	(1,3)	(223,21)	(186,2)	(7,5)	(-1,3)	(40,1)	(-20,15)	(252,1)	(19,3)	(6,1)	(36,1)	(20,1)	(113,2)	
L1D -222>	(120,6)	(290,64)	(20,2)	(-20,1)	(-10,3)	(30,6)	(112,2)	(14,2)	(332,59)	(0,2)	(80,56)	(269,1)	(232,2)	(244,1)	(10,1)	(-100,56)	
L1D -221>	(14,33)	(-46,5)	(0,25)	(1,4)	(-1,6)	(221,28)	(106,6)	(29,2)	(2,40)	(223,1)	(324,1)	(168,1)	(33,1)	(228,6)	(214,4)	(322,1)	
L1D -220>	(-10,39)	(162,85)	(98,11)	(253,1)	(2,7)	(254,1)	(227,3)	(166,54)	(-106,11)	(84,1)	(48,14)	(234,15)	(-1,2)	(-14,1)	(8,7)	(264,7)	
L1D -219>	(122,90)	(221,3)	(4,1)	(226,3)	(434,0)	(246,0)	(219,8)	(0,4)	(19,0)	(2,17)	(3,2)	(-20,1)	(1,1)	(1,0)	(1,0)	(1,0)	
L1D -218>	(232,88)	(1,2)	(-102,3)	(290,1)	(2,1)	(28,1)	(212,3)	(276,1)	(114,2)	(154,1)	(102,0)	(0,1)	(-130,0)	(234,3)	(178,0)	(64,0)	
L1D -217>	(217,5)	(-58,2)	(-20,5)	(2,4)	(19,3)	(6,2)	(1,4)	(0,15)	(246,5)	(224,6)	(29,6)	(-36,1)	(-1,3)	(26,14)	(5,1)	(219,1)	
L1D -216>	(212,7)	(223,1)	(0,2)	(1,1)	(80,13)	(222,75)	(193,103)	(20,26)	(-24,7)	(19,1)	(302,19)	(2,18)	(94,1)	(115,12)	(176,14)	(158,20)	
L1D -215>	(260,1)	(215,0)	(14,0)	(195,0)	(0,12)	(5,0)	(365,0)	(98,82)	(1,1)	(345,0)	(2,4)	(222,0)	(6,0)	(-20,0)	(140,0)	(19,0)	
L1D -214>	(-20,1)	(28,9)	(204,1)	(0,93)	(78,1)	(115,3)	(221,2)	(214,2)	(208,5)	(94,1)	(138,1)	(236,1)	(188,2)	(18,3)	(1,6)	(222,91)	
L1D -213>	(208,0)	(211,0)	(361,0)	(213,1)	(1,2)	(0,127)	(351,0)	(215,0)	(2,0)	(145,0)	(-20,0)	(181,0)	(220,0)	(1,0)	(1,0)	(1,0)	
L1D -212>	(238,62)	(-20,8)	(392,1)	(168,66)	(1,1)	(-116,5)	(214,4)	(-22,1)	(242,1)	(208,58)	(0,6)	(219,3)	(384,1)	(272,1)	(150,2)	(304,6)	
L1D -211>	(5,6)	(211,22)	(175,126)	(6,7)	(0,30)	(179,1)	(2,34)	(24,74)	(1,2)	(-20,6)	(-1,4)	(29,4)	(20,2)	(215,1)	(142,0)	(212,8)	
L1D -210>	(175,10)	(270,1)	(216,1)	(96,4)	(-14,119)	(0,13)	(14,122)	(112,2)	(-142,1)	(35,1)	(264,1)	(174,2)	(28,91)	(130,2)	(118,16)	(1,2)	
L1D -209>	(-12,36)	(138,6)	(29,7)	(26,90)	(1,3)	(0,35)	(24,15)	(6,3)	(313,2)	(252,1)	(209,4)	(194,1)	(208,1)	(210,1)	(28,1)	(19,2)	
L1D -208>	(258,112)	(206,5)	(236,11)	(28,26)	(256,11)	(-106,3)	(270,36)	(230,6)	(0,35)	(-4,3)	(24,6)	(-34,57)	(49,22)	(6,1)	(-14,15)	(-108,2)	
L1D -207>	(-14,18)	(207,18)	(-60,14)	(110,111)	(0,32)	(215,1)	(6,3)	(19,4)	(2,5)	(1,4)	(209,6)	(174,1)	(24,2)	(-1,2)	(210,12)	(211,1)	
L1D -206>	(28,27)	(278,12)	(1,1)	(4,3)	(20,4)	(92,5)	(235,2)	(-24,116)	(10,43)	(48,14)	(43,7)	(2,1)	(206,1)	(0,6)	(-28,27)	(-22,28)	
L1D -205>	(88,1)	(0,49)	(128,1)	(2,1)	(6,15)	(212,5)	(-6,1)	(277,7)	(1,16)	(13,1)	(205,1)	(322,1)	(203,2)	(207,3)	(29,1)	(242,2)	
L1D -204>	(1,4)	(8,80)	(247,1)	(420,0)	(76,1)	(-14,0)	(240,6)	(14,0)	(12,0)	(296,0)	(0,3)	(102,0)	(158,0)	(4,1)	(200,0)	(232,25)	
L1D -203>	(1,7)	(203,24)	(204,2)	(2,5)	(0,29)	(374,1)	(-20,7)	(402,1)	(-6,2)	(6,5)	(3,1)	(24,1)	(-1,1)	(27,3)	(1,0)	(1,0)	
L1D -202>	(150,1)	(308,2)	(106,4)	(42,92)	(180,1)	(1,4)	(201,1)	(26,1)	(6,84)	(56,0)	(312,0)	(28,1)	(210,74)	(32,0)	(314,1)	(330,0)	
L1D -201>	(4,1)	(29,8)	(143,1)	(0,26)	(177,13)	(200,11)	(25,4)	(201,1)	(355,22)	(1,4)	(-20,2)	(244,1)	(2,2)	(318,1)	(218,1)	(-1,3)	
L1D -200>	(24,3)	(80,112)	(-80,2)	(0,4)	(178,8)	(177,4)	(6,1)	(162,1)	(-62,1)	(28,1)	(198,4)	(126,1)	(1,7)	(94,56)	(14,3)	(23,3)	
L1D -199>	(1,10)	(-8,63)	(7,2)	(0,29)	(198,30)	(227,1)	(200,1)	(3,1)	(2,7)	(23,34)	(-20,3)	(177,10)	(178,3)	(186,1)	(187,1)	(132,1)	
L1D -198>	(160,17)	(-6,1)	(177,14)	(-18,1)	(197,1)	(227,2)	(-84,39)	(216,16)	(199,1)	(-10,1)	(0,6)	(272,17)	(188,11)	(244,9)	(1,1)	(234,74)	
L1D -197>	(0,113)	(-61,1)	(196,4)	(2,23)	(1,110)	(21,17)	(177,17)	(14,1)	(199,1)	(3,1)	(198,1)	(124,1)	(1,0)	(1,0)	(1,0)	(1,0)	
L1D -196>	(0,7)	(38,23)	(-78,3)	(177,6)	(20,1)	(1,2)	(228,3)	(196,3)	(84,123)	(240,2)	(192,6)	(130,7)	(12,47)	(338,4)	(-76,2)	(238,3)	
L1D -195>	(195,98)	(177,5)	(48,96)	(-1,1)	(194,2)	(19,9)	(386,1)	(0,1)	(196,1)	(1,0)	(1,0)	(1,0)	(1,0)	(1,0)	(1,0)	(1,0)	
L1D -194>	(18,18)	(-72,5)	(308,6)	(104,116)	(177,1)	(12,5)	(152,5)	(124,2)	(150,7)	(218,6)	(-22,2)	(181,5)	(-78,3)	(16,3)	(190,2)	(0,2)	
L1D -193>	(224,28)	(0,6)	(17,10)	(1,69)	(-1,5)	(193,1)	(385,1)	(345,4)	(177,12)	(213,0)	(18,1)	(-85,0)	(16,0)	(192,14)	(10,0)	(6,0)	
L1D -192>	(66,73)	(193,1)	(0,4)	(16,11)	(177,5)	(104,1)	(1,8)	(190,1)	(188,1)	(156,7)	(14,1)	(-18,1)	(4,1)	(80,2)	(140,1)	(130,0)	
L1D -191>	(-1,13)	(193,3)	(1,12)	(11,1)	(0,14)	(16,24)	(177,60)	(15,100)	(179,5)	(6,2)	(8,1)	(190,32)	(180,13)	(3,5)	(14,6)	(2,11)	
L1D -190>	(188,101)	(1,11)	(318,2)	(208,5)	(254,10)	(189,5)	(11,2)	(177,9)	(179,2)	(0,3)	(128,6)	(2,1)	(14,2)	(106,1)	(6,21)	(136,8)	
L1D -189>	(10,1)	(1,120)	(6,23)	(13,32)	(0,18)	(212,3)	(33,8)	(11,3)	(195,5)	(190,25)	(187,18)	(8,5)	(4,2)	(188,4)	(178,11)	(177,25)	
L1D -188>	(44,66)	(164,2)	(9,0)	(-15,1)	(-75,1)	(20,1)	(260,1)	(228,3)	(-46,1)	(11,3)	(262,4)	(100,50)	(150,5)	(-76,37)	(286,17)	(28,11)	
L1D -187>	(-12,115)	(2,1)	(11,9)	(187,30)	(56,1)	(177,9)	(17,1)	(1,1)	(-96,24)	(9,22)	(0,2)	(10,3)	(8,1)	(18,1)	(176,1)	(12,9)	
L1D -186>	(267,72)	(0,9)	(-122,19)	(10,5)	(-46,5)	(212,40)	(-76,2)	(185,23)	(2,11)	(184,2)	(4,1)	(6,2)	(11,1)	(177,2)	(12,4)	(102,9)	
L1D -185>	(6,2)	(7,1)	(8,3)	(184,13)	(187,2)	(0,1)	(10,1)	(106,101)	(138,0)	(9,6)	(177,21)	(1,96)	(1,0)	(1,0)	(1,0)	(1,0)	
L1D -184>	(110,110)	(8,9)	(-46,7)	(72,7)	(2,1)	(194,18)	(-12,2)	(12,13)	(180,101)	(210,2)	(-108,2)	(-16,2)	(-8,2)	(212,8)	(68,7)	(0,2)	
L1D -183>	(38,63)	(0,18)	(186,1)	(2,17)	(190,7)	(5,97)	(8,43)	(7,23)	(161,17)	(122,37)	(9,9)	(181,10)	(179,13)	(177,4)	(-1,3)	(6,11)	
L1D -182>	(188,2)	(178,1)	(106,2)	(-36,77)	(-132,76)	(-136,2)	(187,2)	(0,1)	(250,1)	(-46,4)	(38,32)	(-2,1)	(-66,20)	(6,5)	(160,3)	(180,3)	
L1D -181>	(177,9)	(-1,125)	(213,21)	(160,17)	(301,38)	(5,9)	(0,4)	(265,86)	(385,15)	(67,7)	(361,56)	(175,39)	(186,10)	(176,1)	(95,114)	(293,18)	
L1D -180>	(-1,5)	(8,108)	(66,27)	(3,8)	(82,11)	(-138,79)	(175,10)	(167,6)	(-30,110)	(168,3)	(178,4)	(184,1)	(112,111)	(208,117)	(160,26)	(-132,3)	
L1D -179>	(-1,9)	(-40,118)	(3,12)	(166,15)	(168,22)	(1,7)	(-9,1)	(181,12)	(175,37)	(182,10)	(174,43)	(176,18)	(163,9)	(173,17)	(177,17)	(165,11)	
L1D -178>	(102,61)	(165,7)	(168,5)	(167,2)	(136,66)	(176,19)	(48,6)	(161,3)	(173,9)	(175,26)	(164,6)	(174,19)	(17,42)	(-2,5)	(169,1)	(-1,3)	
L1D -177>	(244,22)	(177,20)	(1,25)	(174,30)	(-2,1)	(171,54)	(170,13)	(168,29)	(0,3)	(169,6)	(175,105)	(164,13)	(173,44)	(-1,60)	(-15,3)	(172,20)	
L1D -176>	(181,1)	(-5,21)	(178,40)	(170,42)	(172,62)	(180,51)	(175,114)	(167,29)	(174,121)	(171,22)	(2,18)	(15,16)	(184,21)	(177,76)	(173,76)	(-1,35)	
L1D -175>	(154,1)	(189,1)	(177,1)	(347,4)	(172,4)	(3,1)	(-172,102)	(193,0)	(196,0)	(162,0)	(344,0)	(6,2)	(169,2)	(-1,1)	(178,0)	(179,0)	
L1D -174>	(173,7)	(-3,6)	(346,1)	(28,1)	(183,1)	(-172,125)	(172,21)	(164,1)	(162,1)	(168,4)	(5,2)	(179,1)	(174,1)	(344,4)	(177,1)	(178,3)	
L1D -173>	(174,1)	(-3,0)	(179,0)	(176,0)	(28,1)	(170,0)	(177,1)	(86,0)	(316,0)	(344,0)	(-172,102)	(-1,1)	(172,11)	(173,0)	(3,0)	(-171,0)	
L1D -172>	(342,0)	(167,0)	(-170,0)	(-171,0)	(-175,0)	(343,0)	(345,65)	(344,2)	(173,2)	(-172,68)	(-2,0)	(3,1)	(2,1)	(-1,0)	(351,0)	(4,1)	
L1D -171>	(343,8)	(173,1)	(167,1)	(172,38)	(169,0)	(175,0)	(-172,97)	(176,0)	(171,1)	(-1,10)	(90,2)	(4,0)	(177,0)	(344,7)	(-4,0)	(-2,0)	
L1D -170>	(343,0)	(173,2)	(2,0)	(171,4)	(176,0)	(-172,66)	(-168,0)	(172,2)	(180,0)	(342,2)	(33,1)	(344,3)	(169,0)	(6,0)	(-2,2)	(-174,0)	
L1D -169>	(173,1)	(170,1)	(-7,0)	(172,3)	(0,0)	(175,0)	(2,3)	(171,0)	(-1,0)	(-3,0)	(344,0)	(341,0)	(1,0)	(-175,0)	(178,0)	(-172,82)	
L1D -168>	(343,62)	(-1,1)	(-4,3)	(338,1)	(158,34)	(172,13)	(-3,70)	(169,1)	(1,23)	(40,1)	(173,7)	(87,5)	(175,6)	(337,1)	(180,1)	(-8,1)	
L1D -167>	(-3,10)	(-1,5)	(175,15)	(-4,5)	(166,51)	(0,5)	(86,91)	(167,9)	(-8,1)	(-9,9)	(95,19)	(361,7)	(169,19)	(176,2)	(-172,6)	(8,41)	
L1D -166>	(3,10)	(-106,2)	(-171,2)	(167,5)	(384,1)	(114,3)	(175,6)	(26,3)	(-4,37)	(120,3)	(-10,16)	(-1,54)	(168,3)	(214,125)	(220,8)	(4,44)	
L1D -165>	(-10,1)	(166,1)	(167,14)	(1,13)	(-1,44)	(172,120)	(189,1)	(175,5)	(187,3)	(174,6)	(72,11)	(-172,8)	(-2,11)	(344,4)	(-11,4)	(190,2)	
L1D -164>	(114,78)	(13,9)	(48,18)	(-6,6)	(169,13)	(173,2)	(164,2)	(-3,4)	(-2,1)	(175,10)	(-11,5)	(-9,1)	(-12,6)	(188,1)	(0,1)	(166,4)	
L1D -163>	(1,70)	(175,8)	(165,21)	(162,1)	(164,5)	(189,5)	(-20,3)	(171,2)	(-13,4)	(12,1)	(166,1)	(0,2)	(27,1)	(-12,3)	(186,4)	(174,8)	
L1D -162>	(238,69)	(176,1)	(-148,3)	(175,8)	(112,7)	(163,5)	(54,8)	(3,113)	(2,43)	(164,3)	(-2,14)	(-38,65)	(-3,15)	(-14,16)	(11,2)	(-64,2)	
L1D -161>	(164,1)	(0,42)	(-110,7)	(162,52)	(-14,70)	(-15,25)	(175,34)	(5,57)	(1,126)	(70,61)	(163,123)	(21,9)	(174,8)	(172,34)	(161,2)	(-1,13)	
L1D -160>	(392,1)	(1,2)	(159,64)	(174,2)	(12,1)	(161,0)	(-16,1)	(-13,1)	(-4,0)	(246,0)	(69,110)	(-100,0)	(-1,1)	(157,1)	(175,0)	(162,1)	
L1D -159>	(-99,11)	(152,25)	(-2,1)	(-13,3)	(-1,85)	(410,0)	(-17,0)	(156,0)	(-98,1)	(160,0)	(9,0)	(68,83)	(161,0)	(174,1)	(-3,16)	(173,0)	
L1D -158>	(66,3)	(-64,2)	(1,4)	(-18,16)	(188,111)	(2,21)	(27,21)	(-1,6)	(144,2)	(152,4)	(-8,3)	(175,3)	(48,2)	(-46,1)	(174,3)	(150,1)	
L1D -157>	(183,0)	(162,0)	(118,0)	(3,0)	(-19,0)	(157,0)	(1,40)	(72,6)	(-1,18)	(26,41)	(13,0)	(155,11)	(-17,0)	(-16,0)	(158,0)	(5,77)	
L1D -156>	(28,0)	(0,1)	(159,0)	(-26,0)	(25,117)	(174,2)	(27,19)	(-18,0)	(-100,8)	(104,0)	(242,6)	(1,0)	(64,7)	(136,5)	(18,0)	(152,0)	
L1D -155>	(-21,5)	(0,8)	(-20,36)	(155,3)	(1,4)	(12,2)	(-1,13)	(154,2)	(-3,1)	(25,1)	(17,3)	(2,4)	(173,1)	(219,1)	(26,1)	(1,0)	
L1D -154>	(0,5)	(4,42)	(34,77)	(92,1)	(26,21)	(210,79)	(122,6)	(-12,69)	(94,27)	(153,55)	(93,71)	(24,20)	(152,83)	(-102,8)	(25,37)	(96,8)	
L1D -153>	(93,112)	(150,9)	(-1,6)	(1,2)	(90,4)	(144,2)	(91,9)	(145,4)	(92,5)	(137,2)	(152,3)	(94,12)	(153,5)	(140,2)	(157,2)	(78,6)	
L1D -152>	(150,0)	(21,12)	(139,0)	(79,0)	(151,0)	(99,0)	(153,0)	(143,0)	(0,0)	(92,1)	(-1,0)	(155,68)	(93,1)	(89,0)	(24,0)	(145,0)	
L1D -151>	(139,1)	(146,0)	(150,90)	(93,0)	(-21,0)	(-1,0)	(19,18)	(1,0)	(88,1)	(140,1)	(-20,1)	(23,2)	(-5,0)	(145,1)	(154,1)	(89,2)	
L1D -150>	(149,70)	(144,4)	(142,4)	(87,3)	(-26,7)	(90,8)	(86,2)	(-25,1)	(148,6)	(88,5)	(139,3)	(89,8)	(134,2)	(91,5)	(352,42)	(147,3)	
L1D -149>	(87,7)	(145,4)	(3,6)	(13,5)	(138,9)	(11,8)	(139,1)	(88,97)	(-8,5)	(-154,4)	(136,1)	(133,1)	(15,1)	(92,1)	(90,5)	(152,1)	
L1D -148>	(326,97)	(145,4)	(147,34)	(216,8)	(-122,114)	(93,2)	(153,4)	(1,2)	(94,1)	(10,13)	(148,19)	(-100,2)	(218,1)	(212,7)	(206,3)	(56,108)	
L1D -147>	(141,4)	(142,1)	(29,1)	(154,0)	(153,0)	(262,0)	(146,100)	(145,2)	(139,0)	(5,0)	(-125,0)	(-12,0)	(133,0)	(17,0)	(-145,0)	(-33,1)	
L1D -146>	(-100,5)	(9,36)	(35,9)	(142,4)	(102,6)	(148,6)	(144,10)	(-33,4)	(104,101)	(145,71)	(2,16)	(103,10)	(98,5)	(135,2)	(99,2)	(139,3)	
L1D -145>	(0,90)	(154,7)	(102,9)	(103,53)	(-14,1)	(140,4)	(144,4)	(-1,5)	(149,2)	(86,2)	(133,3)	(82,2)	(12,6)	(101,4)	(104,23)	(1,2)	
L1D -144>	(38,80)	(7,60)	(236,81)	(5,12)	(1,49)	(102,44)	(31,1)	(104,15)	(95,9)	(-26,14)	(-170,13)	(66,64)	(143,6)	(0,53)	(141,7)	(6,6)	
L1D -143>	(154,5)	(140,7)	(99,4)	(113,2)	(144,4)	(142,7)	(0,6)	(100,8)	(141,2)	(132,16)	(103,2)	(130,1)	(134,6)	(125,4)	(104,10)	(-21,105)	
L1D -142>	(1,7)	(103,5)	(143,2)	(-178,84)	(44,1)	(136,109)	(138,17)	(18,2)	(232,3)	(137,38)	(-6,5)	(32,2)	(-76,4)	(154,12)	(100,10)	(98,7)	
L1D -141>	(153,2)	(-1,3)	(99,6)	(138,1)	(98,9)	(137,9)	(-3,2)	(3,30)	(130,6)	(128,10)	(139,72)	(103,5)	(135,8)	(100,23)	(136,31)	(127,5)	
L1D -140>	(1,1)	(128,0)	(138,0)	(186,0)	(134,0)	(125,0)	(2,0)	(-50,0)	(131,0)	(155,110)	(-9,0)	(137,6)	(154,0)	(89,0)	(50,0)	(150,0)	
L1D -139>	(-4,42)	(1,114)	(147,19)	(-25,7)	(143,10)	(130,6)	(135,12)	(51,42)	(154,6)	(136,66)	(145,1)	(127,4)	(137,28)	(140,5)	(142,6)	(138,31)	
L1D -138>	(136,77)	(139,90)	(140,115)	(236,9)	(4,18)	(232,11)	(-6,15)	(-98,8)	(141,56)	(-1,38)	(137,54)	(254,3)	(135,16)	(154,1)	(-3,48)	(138,47)	
L1D -137>	(0,6)	(49,36)	(138,40)	(142,3)	(-33,5)	(140,2)	(127,4)	(137,2)	(9,3)	(-7,84)	(200,1)	(1,2)	(139,12)	(134,2)	(3,6)	(4,3)	
L1D -136>	(-180,83)	(-13,79)	(0,34)	(134,1)	(137,14)	(44,81)	(136,15)	(42,4)	(142,8)	(120,2)	(126,6)	(-94,3)	(1,47)	(140,6)	(254,2)	(146,8)	
L1D -135>	(0,8)	(154,5)	(1,5)	(124,7)	(6,5)	(146,5)	(-2,3)	(137,4)	(47,10)	(138,17)	(4,1)	(133,11)	(134,4)	(94,2)	(2,92)	(102,6)	
L1D -134>	(-13,50)	(131,39)	(127,10)	(92,61)	(133,71)	(128,22)	(125,1)	(132,45)	(111,40)	(118,4)	(129,13)	(162,40)	(-1,46)	(298,54)	(122,17)	(22,36)	
L1D -133>	(132,59)	(133,30)	(131,34)	(-1,38)	(129,22)	(126,1)	(130,14)	(84,6)	(91,66)	(1,13)	(135,3)	(51,21)	(-3,3)	(128,15)	(92,9)	(134,7)	
L1D -132>	(154,1)	(88,1)	(46,68)	(130,1)	(91,1)	(122,1)	(131,2)	(6,2)	(137,0)	(90,3)	(-1,2)	(47,5)	(-19,1)	(129,0)	(72,1)	(133,14)	
L1D -131>	(4,0)	(116,0)	(126,0)	(53,7)	(130,1)	(7,0)	(89,0)	(129,0)	(143,0)	(71,1)	(120,0)	(-1,0)	(70,0)	(124,74)	(154,0)	(146,1)	
L1D -130>	(14,6)	(-92,11)	(-16,82)	(6,39)	(188,86)	(125,17)	(-2,99)	(133,31)	(132,9)	(122,6)	(128,9)	(88,17)	(20,7)	(56,98)	(126,1)	(46,42)	
L1D -129>	(53,41)	(46,127)	(125,8)	(130,74)	(-9,24)	(128,39)	(132,63)	(134,44)	(131,108)	(127,28)	(137,1)	(123,19)	(121,15)	(116,16)	(117,28)	(119,13)	
L1D -128>	(142,84)	(-1,114)	(70,15)	(-4,92)	(-2,21)	(71,4)	(134,5)	(131,2)	(16,3)	(154,8)	(129,2)	(132,4)	(42,1)	(14,1)	(-54,3)	(133,28)	
L1D -127>	(166,125)	(133,6)	(134,12)	(117,8)	(71,1)	(184,3)	(145,5)	(143,1)	(-88,1)	(-140,1)	(185,1)	(122,4)	(131,16)	(130,7)	(-22,1)	(0,2)	
L1D -126>	(-4,81)	(-1,119)	(6,21)	(84,123)	(125,49)	(70,8)	(24,42)	(172,55)	(119,85)	(-46,65)	(111,71)	(121,8)	(131,1)	(123,59)	(68,8)	(178,3)	
L1D -125>	(43,49)	(117,1)	(123,98)	(125,56)	(-1,97)	(124,121)	(134,59)	(119,47)	(122,76)	(120,31)	(240,69)	(83,90)	(8,45)	(66,44)	(121,37)	(226,51)	
L1D -124>	(1,4)	(216,76)	(126,27)	(-13,81)	(-1,44)	(130,77)	(117,22)	(122,21)	(123,6)	(134,28)	(21,15)	(125,18)	(80,5)	(129,4)	(111,1)	(82,42)	
L1D -123>	(118,1)	(144,0)	(-1,9)	(82,3)	(80,2)	(131,2)	(105,9)	(124,5)	(123,1)	(126,0)	(84,2)	(81,10)	(1,69)	(134,1)	(132,4)	(125,1)	
L1D -122>	(218,109)	(117,92)	(-96,114)	(246,5)	(124,24)	(120,1)	(-28,20)	(-94,106)	(6,10)	(332,113)	(150,77)	(44,96)	(180,96)	(154,105)	(78,19)	(14,6)	
L1D -121>	(80,12)	(-27,81)	(124,20)	(-1,18)	(120,32)	(134,1)	(121,32)	(132,9)	(133,12)	(119,27)	(79,56)	(123,29)	(118,24)	(236,2)	(-26,3)	(76,7)	
L1D -120>	(126,1)	(118,9)	(24,74)	(-1,35)	(121,6)	(119,13)	(-2,102)	(-174,4)	(78,16)	(134,12)	(133,10)	(146,14)	(120,15)	(79,10)	(116,4)	(103,53)	
L1D -119>	(-1,37)	(25,76)	(119,6)	(132,1)	(118,7)	(126,3)	(117,37)	(120,15)	(125,20)	(122,3)	(77,34)	(116,27)	(134,25)	(121,10)	(76,5)	(146,2)	
L1D -118>	(116,57)	(68,20)	(115,42)	(79,1)	(117,90)	(125,2)	(111,45)	(-1,63)	(76,30)	(144,2)	(-102,16)	(113,23)	(134,2)	(2,38)	(114,39)	(1,1)	
L1D -117>	(71,9)	(34,9)	(35,55)	(82,8)	(116,15)	(-2,38)	(-5,9)	(121,9)	(118,3)	(115,8)	(75,11)	(-4,70)	(74,1)	(120,4)	(117,8)	(-1,30)	
L1D -116>	(-3,3)	(218,2)	(122,6)	(74,59)	(119,1)	(81,13)	(-7,10)	(76,8)	(109,26)	(212,1)	(111,31)	(114,2)	(117,51)	(118,102)	(134,2)	(-1,45)	
L1D -115>	(-19,1)	(80,2)	(122,0)	(69,0)	(73,2)	(2,0)	(-1,46)	(55,12)	(-5,68)	(-2,37)	(116,36)	(-3,125)	(114,21)	(-4,5)	(98,0)	(118,2)	
L1D -114>	(130,62)	(-94,47)	(76,13)	(2,2)	(117,4)	(114,3)	(111,73)	(44,21)	(-66,2)	(80,2)	(82,1)	(1,1)	(116,2)	(72,1)	(122,1)	(-96,2)	
L1D -113>	(108,1)	(146,8)	(116,1)	(67,2)	(78,1)	(121,1)	(344,0)	(-9,2)	(111,0)	(2,3)	(25,0)	(109,0)	(152,0)	(84,107)	(42,29)	(118,0)	
L1D -112>	(-56,5)	(-122,84)	(175,96)	(-88,15)	(166,8)	(66,6)	(-220,8)	(-72,11)	(-16,27)	(-100,22)	(113,16)	(64,17)	(86,1)	(112,9)	(180,45)	(49,37)	
L1D -111>	(112,5)	(93,76)	(45,41)	(62,1)	(1,4)	(6,10)	(50,62)	(51,10)	(52,57)	(98,14)	(100,14)	(48,109)	(49,9)	(111,9)	(109,86)	(0,7)	
L1D -110>	(1,4)	(127,68)	(111,53)	(51,63)	(-16,61)	(0,55)	(50,30)	(478,1)	(180,4)	(302,61)	(118,79)	(-98,2)	(352,2)	(-108,66)	(234,6)	(48,26)	
L1D -109>	(52,1)	(99,2)	(204,5)	(47,8)	(424,0)	(50,109)	(-1,1)	(107,16)	(49,13)	(48,5)	(46,5)	(110,0)	(97,2)	(0,0)	(109,0)	(148,0)	
L1D -108>	(118,30)	(78,116)	(210,24)	(-6,9)	(107,4)	(-54,62)	(97,7)	(108,4)	(96,10)	(82,19)	(-10,55)	(100,21)	(-1,2)	(0,48)	(-81,1)	(212,1)	
L1D -107>	(108,6)	(6,0)	(1,2)	(-18,0)	(24,0)	(65,64)	(0,0)	(-4,0)	(2,0)	(-19,0)	(-15,0)	(-2,0)	(-64,0)	(107,0)	(106,0)	(-106,0)	
L1D -106>	(1,66)	(0,2)	(-50,1)	(96,10)	(-94,8)	(106,1)	(64,1)	(150,0)	(14,0)	(117,1)	(-16,0)	(260,0)	(-126,0)	(122,1)	(268,0)	(76,0)	
L1D -105>	(-20,10)	(7,73)	(0,17)	(-4,24)	(144,0)	(86,6)	(106,2)	(-2,0)	(-328,51)	(1,2)	(105,2)	(112,2)	(24,0)	(-1,0)	(103,0)	(-64,0)	
L1D -104>	(103,82)	(96,100)	(102,35)	(136,18)	(200,3)	(101,17)	(144,66)	(-2,7)	(-1,45)	(66,26)	(9,32)	(72,3)	(130,1)	(100,7)	(143,48)	(145,42)	
L1D -103>	(60,82)	(103,1)	(-1,6)	(99,1)	(96,1)	(98,1)	(7,1)	(63,9)	(6,1)	(141,0)	(102,2)	(144,3)	(146,1)	(145,0)	(143,0)	(100,0)	
L1D -102>	(98,0)	(1,97)	(-1,0)	(104,0)	(145,2)	(103,0)	(144,1)	(146,1)	(9,0)	(4,0)	(143,1)	(123,0)	(138,0)	(234,0)	(66,0)	(130,0)	
L1D -101>	(100,10)	(141,18)	(138,1)	(1,99)	(103,2)	(-121,9)	(136,2)	(144,4)	(145,38)	(140,9)	(143,2)	(142,13)	(102,20)	(98,5)	(-41,2)	(146,11)	
L1D -100>	(308,14)	(-8,8)	(108,14)	(20,10)	(135,1)	(142,1)	(1,39)	(220,11)	(102,0)	(145,8)	(125,1)	(9,64)	(141,2)	(104,1)	(288,11)	(4,2)	
L1D -99>	(0,63)	(62,111)	(24,27)	(99,27)	(87,3)	(98,5)	(142,2)	(101,9)	(61,2)	(78,14)	(139,1)	(60,13)	(125,1)	(89,7)	(144,1)	(145,3)	
L1D -98>	(28,6)	(0,45)	(99,2)	(98,45)	(93,1)	(60,64)	(-1,12)	(-22,13)	(97,24)	(-188,1)	(142,0)	(-92,6)	(-112,2)	(78,53)	(84,2)	(-72,0)	
L1D -97>	(141,2)	(104,1)	(93,1)	(97,1)	(-1,18)	(29,7)	(143,1)	(100,2)	(98,8)	(1,102)	(102,1)	(96,37)	(140,2)	(138,1)	(146,0)	(142,1)	
L1D -96>	(85,1)	(98,1)	(89,1)	(107,1)	(135,1)	(146,0)	(95,0)	(93,0)	(-1,1)	(29,18)	(91,2)	(125,1)	(-29,95)	(-9,2)	(100,0)	(101,0)	
L1D -95>	(91,6)	(29,8)	(97,9)	(-29,33)	(150,107)	(361,18)	(9,3)	(96,3)	(146,3)	(144,2)	(94,2)	(141,2)	(104,1)	(125,8)	(263,3)	(143,9)	
L1D -94>	(28,35)	(51,70)	(52,51)	(50,10)	(2,42)	(150,1)	(92,17)	(1,82)	(-6,11)	(-70,46)	(-1,23)	(216,4)	(154,39)	(152,39)	(-32,25)	(27,7)	
L1D -93>	(54,1)	(93,30)	(0,40)	(51,65)	(90,21)	(-29,36)	(144,6)	(-8,40)	(88,4)	(-1,8)	(154,9)	(92,5)	(146,6)	(1,84)	(52,3)	(62,6)	
L1D -92>	(90,67)	(26,5)	(24,18)	(96,34)	(20,40)	(-30,34)	(52,14)	(210,24)	(93,27)	(28,9)	(51,23)	(50,28)	(84,25)	(-50,5)	(132,1)	(83,41)	
L1D -91>	(79,5)	(91,12)	(96,114)	(49,9)	(150,21)	(55,12)	(51,51)	(90,26)	(-1,23)	(1,8)	(146,10)	(30,32)	(136,1)	(153,24)	(32,20)	(88,14)	
L1D -90>	(1,10)	(91,68)	(220,26)	(48,7)	(92,18)	(88,9)	(47,14)	(-34,29)	(0,5)	(93,42)	(-10,24)	(131,7)	(118,2)	(133,13)	(146,1)	(76,3)	
L1D -89>	(85,0)	(-10,69)	(88,0)	(87,0)	(86,0)	(84,4)	(130,0)	(1,2)	(134,0)	(132,0)	(90,2)	(148,0)	(129,0)	(94,0)	(125,0)	(115,0)	
L1D -88>	(48,18)	(92,19)	(0,71)	(87,36)	(72,19)	(20,21)	(-120,18)	(6,24)	(-12,31)	(-32,14)	(30,11)	(133,15)	(-10,72)	(124,1)	(1,100)	(28,21)	
L1D -87>	(98,17)	(85,97)	(86,51)	(89,2)	(-2,23)	(0,16)	(133,4)	(131,1)	(7,1)	(-3,22)	(1,1)	(83,84)	(90,3)	(82,86)	(84,40)	(51,2)	
L1D -86>	(-88,53)	(-58,72)	(87,18)	(-44,6)	(83,27)	(81,45)	(168,23)	(69,7)	(10,6)	(-26,6)	(-3,21)	(-294,66)	(51,31)	(89,64)	(133,1)	(90,12)	
L1D -85>	(45,1)	(129,1)	(6,1)	(117,1)	(-77,8)	(87,0)	(107,1)	(-9,0)	(32,0)	(89,0)	(81,0)	(-43,45)	(-1,0)	(-47,17)	(-8,5)	(90,119)	
L1D -84>	(146,3)	(-48,18)	(80,2)	(21,78)	(81,4)	(13,11)	(86,1)	(-39,48)	(85,1)	(123,3)	(154,1)	(-1,4)	(158,9)	(18,8)	(83,2)	(20,98)	
L1D -83>	(81,19)	(-1,22)	(83,10)	(90,53)	(19,97)	(126,1)	(43,12)	(29,4)	(-43,4)	(84,5)	(-9,25)	(138,21)	(31,22)	(20,7)	(79,5)	(82,47)	
L1D -82>	(20,5)	(6,36)	(125,1)	(85,1)	(-2,4)	(86,4)	(4,8)	(2,8)	(81,5)	(117,12)	(79,2)	(-1,5)	(19,65)	(131,0)	(5,1)	(8,2)	
L1D -81>	(-7,1)	(116,2)	(-1,9)	(94,95)	(18,1)	(2,1)	(85,1)	(21,1)	(132,1)	(-58,11)	(125,1)	(78,3)	(82,0)	(80,0)	(83,0)	(77,0)	
L1D -80>	(96,20)	(3,20)	(138,35)	(123,19)	(31,16)	(141,1)	(260,17)	(11,4)	(115,102)	(-7,18)	(20,15)	(82,112)	(1,10)	(-1,12)	(81,116)	(125,20)	
L1D -79>	(29,10)	(122,1)	(19,94)	(78,14)	(61,11)	(124,14)	(118,9)	(-1,18)	(77,11)	(1,51)	(22,9)	(83,14)	(111,62)	(81,45)	(80,90)	(87,12)	
L1D -78>	(58,5)	(-1,16)	(60,89)	(87,7)	(94,2)	(121,5)	(113,12)	(89,1)	(0,69)	(98,14)	(-41,1)	(128,1)	(99,6)	(76,10)	(338,1)	(93,1)	
L1D -77>	(62,1)	(14,96)	(73,0)	(-3,7)	(81,0)	(88,0)	(152,0)	(17,0)	(1,4)	(78,21)	(61,0)	(75,0)	(146,0)	(120,0)	(79,1)	(3,0)	
L1D -76>	(-130,14)	(13,6)	(75,99)	(-138,77)	(-13,78)	(338,73)	(50,10)	(115,20)	(29,37)	(-48,83)	(73,50)	(11,18)	(134,65)	(74,27)	(98,4)	(-1,43)	
L1D -75>	(1,52)	(77,40)	(-1,6)	(146,1)	(76,62)	(94,9)	(5,109)	(118,37)	(33,3)	(134,6)	(0,54)	(154,32)	(35,23)	(73,10)	(361,6)	(32,3)	
L1D -74>	(69,44)	(32,82)	(-36,32)	(44,45)	(314,52)	(6,62)	(-2,13)	(72,23)	(111,66)	(75,126)	(-1,40)	(94,11)	(-168,6)	(-128,63)	(95,3)	(14,6)	
L1D -73>	(116,10)	(151,2)	(1,14)	(13,2)	(9,9)	(94,5)	(128,12)	(3,126)	(-2,1)	(50,23)	(-1,9)	(5,4)	(21,12)	(118,18)	(121,6)	(74,122)	
L1D -72>	(-4,11)	(26,2)	(1,30)	(73,85)	(-7,21)	(74,19)	(-122,18)	(-1,6)	(34,3)	(67,1)	(-6,2)	(168,1)	(94,1)	(15,2)	(-16,14)	(72,23)	
L1D -71>	(71,12)	(-21,55)	(-4,59)	(94,24)	(76,18)	(-20,65)	(-150,10)	(73,102)	(132,28)	(11,30)	(31,19)	(1,93)	(-1,39)	(61,48)	(29,28)	(152,1)	
L1D -70>	(-70,83)	(-85,38)	(21,25)	(28,86)	(-5,19)	(25,18)	(30,43)	(336,81)	(72,19)	(71,30)	(69,54)	(-2,102)	(29,1)	(-7,18)	(-188,7)	(35,64)	
L1D -69>	(1,32)	(5,24)	(-28,111)	(-5,23)	(22,31)	(94,7)	(-85,13)	(-2,56)	(12,17)	(71,1)	(61,11)	(43,13)	(50,9)	(-8,19)	(68,83)	(27,25)	
L1D -68>	(27,1)	(-2,100)	(48,3)	(94,4)	(-26,31)	(186,2)	(-4,17)	(-6,2)	(66,26)	(69,77)	(2,70)	(26,31)	(8,22)	(62,10)	(1,2)	(11,2)	
L1D -67>	(-138,31)	(1,75)	(-3,124)	(4,14)	(68,31)	(-28,20)	(-1,7)	(12,9)	(-5,75)	(122,44)	(15,40)	(-37,19)	(43,7)	(66,12)	(-4,15)	(94,1)	
L1D -66>	(298,7)	(62,21)	(1,22)	(64,45)	(24,9)	(-5,1)	(94,2)	(12,8)	(-26,9)	(47,12)	(-45,25)	(-176,5)	(-4,23)	(184,7)	(194,7)	(-28,92)	
L1D -65>	(62,5)	(64,3)	(8,7)	(9,3)	(-9,2)	(156,64)	(66,2)	(-3,4)	(43,4)	(60,25)	(133,1)	(126,0)	(23,4)	(107,2)	(13,4)	(-1,8)	
L1D -64>	(8,3)	(62,27)	(55,22)	(-16,36)	(6,1)	(59,6)	(22,5)	(2,68)	(-28,38)	(15,4)	(5,12)	(156,27)	(43,11)	(-1,2)	(1,104)	(60,26)	
L1D -63>	(7,1)	(1,2)	(64,1)	(60,12)	(57,1)	(-30,5)	(61,91)	(58,2)	(21,7)	(44,1)	(-2,8)	(-1,110)	(-88,1)	(8,26)	(62,3)	(43,5)	
L1D -62>	(-3,11)	(60,69)	(-137,1)	(57,16)	(-29,41)	(-6,2)	(20,8)	(61,43)	(59,20)	(65,3)	(8,72)	(64,42)	(43,16)	(63,76)	(-2,34)	(-1,96)	
L1D -61>	(1,18)	(-1,2)	(42,1)	(8,3)	(-2,4)	(-5,7)	(19,12)	(63,80)	(54,5)	(57,3)	(60,73)	(58,3)	(61,4)	(59,16)	(43,5)	(-3,2)	
L1D -60>	(59,83)	(60,30)	(0,9)	(9,6)	(13,7)	(99,9)	(58,40)	(62,60)	(-94,15)	(-1,39)	(61,48)	(63,29)	(44,9)	(54,1)	(64,25)	(57,27)	
L1D -59>	(17,87)	(60,27)	(61,64)	(58,46)	(-1,42)	(1,5)	(57,37)	(-33,1)	(51,19)	(44,10)	(-4,33)	(42,20)	(59,20)	(64,19)	(38,9)	(43,55)	
L1D -58>	(-42,5)	(48,3)	(16,69)	(-11,28)	(43,9)	(60,4)	(56,1)	(155,5)	(59,18)	(-62,4)	(-188,6)	(326,7)	(115,7)	(-126,5)	(-18,5)	(57,3)	
L1D -57>	(44,1)	(15,52)	(57,39)	(61,31)	(-1,79)	(58,16)	(56,22)	(-23,18)	(-20,18)	(-21,5)	(54,15)	(59,10)	(42,30)	(14,8)	(60,12)	(43,41)	
L1D -56>	(16,22)	(43,66)	(71,30)	(240,2)	(45,52)	(-2,61)	(14,32)	(55,33)	(56,23)	(12,6)	(54,9)	(59,2)	(61,16)	(294,48)	(42,13)	(50,1)	
L1D -55>	(51,13)	(13,36)	(42,4)	(56,26)	(-12,3)	(53,19)	(-7,13)	(-9,21)	(14,6)	(60,5)	(-10,15)	(52,15)	(47,8)	(45,96)	(50,2)	(43,29)	
L1D -54>	(-27,13)	(4,4)	(60,4)	(12,14)	(11,8)	(10,4)	(52,15)	(1,19)	(46,1)	(48,6)	(43,6)	(51,42)	(42,4)	(45,69)	(50,7)	(-2,45)	
L1D -53>	(54,75)	(1,30)	(51,49)	(11,114)	(146,9)	(53,39)	(60,33)	(9,14)	(52,16)	(45,2)	(-3,7)	(10,54)	(-40,6)	(42,25)	(43,51)	(55,32)	
L1D -52>	(10,112)	(93,19)	(43,24)	(92,22)	(147,5)	(53,40)	(55,35)	(50,35)	(39,1)	(54,25)	(-1,70)	(7,10)	(60,19)	(49,5)	(94,10)	(51,87)	
L1D -51>	(-1,20)	(53,1)	(52,96)	(9,23)	(39,37)	(50,40)	(1,3)	(92,16)	(56,15)	(49,22)	(4,3)	(51,42)	(43,42)	(6,3)	(42,10)	(-4,23)	
L1D -50>	(272,13)	(61,25)	(-4,16)	(49,12)	(53,1)	(51,98)	(200,6)	(4,13)	(42,20)	(136,9)	(90,9)	(48,10)	(43,33)	(50,51)	(10,3)	(91,4)	
L1D -49>	(1,6)	(49,36)	(50,122)	(59,13)	(-33,10)	(5,11)	(43,17)	(6,10)	(2,18)	(34,1)	(4,6)	(-40,3)	(90,7)	(7,8)	(51,70)	(44,10)	
L1D -48>	(16,3)	(48,95)	(46,9)	(3,78)	(44,9)	(6,41)	(2,41)	(8,63)	(1,1)	(-2,3)	(-80,3)	(-106,2)	(47,43)	(-1,17)	(-354,3)	(50,17)	
L1D -47>	(2,28)	(47,118)	(51,5)	(41,15)	(64,1)	(-1,13)	(5,15)	(-108,15)	(4,8)	(49,11)	(50,14)	(45,85)	(3,46)	(0,4)	(44,13)	(43,56)	
L1D -46>	(42,12)	(44,93)	(57,1)	(45,92)	(-3,2)	(93,20)	(50,24)	(56,6)	(40,107)	(43,44)	(41,71)	(46,101)	(-1,64)	(2,43)	(-2,108)	(48,36)	
L1D -45>	(32,1)	(40,13)	(43,124)	(-33,30)	(26,3)	(-1,9)	(44,25)	(3,6)	(-2,22)	(50,2)	(38,2)	(42,3)	(45,21)	(2,10)	(41,21)	(30,8)	
L1D -44>	(34,6)	(-4,10)	(42,37)	(44,121)	(-1,44)	(-33,23)	(36,10)	(33,12)	(39,17)	(41,39)	(43,21)	(40,69)	(46,1)	(2,19)	(-2,26)	(29,15)	
L1D -43>	(-12,1)	(-4,119)	(1,46)	(28,19)	(37,21)	(2,21)	(44,31)	(-1,50)	(43,101)	(40,105)	(42,117)	(6,41)	(41,99)	(-7,13)	(39,61)	(38,46)	
L1D -42>	(-103,2)	(3,12)	(40,87)	(33,19)	(37,21)	(44,55)	(-4,14)	(6,9)	(42,14)	(-1,67)	(38,22)	(41,81)	(43,50)	(39,35)	(-3,23)	(48,28)	
L1D -41>	(-1,22)	(44,17)	(47,23)	(1,86)	(40,59)	(49,9)	(2,32)	(42,8)	(50,5)	(43,23)	(48,10)	(60,1)	(45,8)	(41,12)	(38,8)	(26,10)	
L1D -40>	(-9,1)	(38,5)	(-16,1)	(37,6)	(39,66)	(43,24)	(-2,3)	(49,1)	(40,2)	(45,3)	(1,6)	(41,3)	(-3,4)	(-1,4)	(-34,5)	(44,7)	
L1D -39>	(47,1)	(38,114)	(-1,9)	(43,1)	(46,1)	(25,1)	(36,1)	(-2,36)	(45,2)	(30,2)	(0,1)	(39,6)	(41,2)	(42,3)	(44,1)	(-83,1)	
L1D -38>	(39,7)	(35,8)	(46,1)	(40,5)	(-4,5)	(17,94)	(42,8)	(37,2)	(41,11)	(36,9)	(38,34)	(33,1)	(-2,8)	(47,4)	(4,1)	(-1,19)	
L1D -37>	(34,5)	(32,3)	(19,8)	(20,123)	(57,4)	(38,6)	(16,45)	(39,4)	(36,17)	(22,56)	(-1,11)	(41,9)	(40,16)	(37,47)	(29,2)	(42,13)	
L1D -36>	(35,6)	(-4,6)	(15,1)	(41,6)	(-1,8)	(38,15)	(31,6)	(94,7)	(42,4)	(20,30)	(29,125)	(22,12)	(40,2)	(36,36)	(37,6)	(32,15)	
L1D -35>	(35,35)	(2,25)	(6,6)	(15,58)	(1,114)	(-82,8)	(40,5)	(-80,8)	(29,3)	(39,1)	(41,11)	(52,2)	(42,8)	(37,7)	(38,5)	(36,6)	
L1D -34>	(31,3)	(35,4)	(2,4)	(-6,2)	(37,3)	(-2,1)	(95,7)	(34,23)	(48,1)	(-7,3)	(32,22)	(-1,3)	(42,3)	(1,21)	(41,5)	(36,103)	
L1D -33>	(29,38)	(2,19)	(74,25)	(43,1)	(41,8)	(31,6)	(19,2)	(33,29)	(1,53)	(95,10)	(20,1)	(36,2)	(96,22)	(35,116)	(93,9)	(42,7)	
L1D -32>	(20,16)	(36,79)	(43,43)	(31,28)	(-10,4)	(40,1)	(21,58)	(1,16)	(96,49)	(32,58)	(2,87)	(-1,34)	(37,112)	(41,18)	(90,6)	(38,4)	
L1D -31>	(6,1)	(74,2)	(-62,8)	(-9,2)	(-2,1)	(20,7)	(-1,93)	(32,5)	(71,1)	(73,19)	(93,4)	(31,12)	(37,1)	(5,1)	(8,7)	(9,12)	
L1D -30>	(41,10)	(14,15)	(-11,10)	(-10,9)	(-12,9)	(6,4)	(3,15)	(30,21)	(2,1)	(28,24)	(8,5)	(95,18)	(5,4)	(83,18)	(-1,89)	(96,28)	
L1D -29>	(26,14)	(31,8)	(2,18)	(32,1)	(29,45)	(-12,33)	(5,91)	(30,9)	(28,12)	(92,3)	(41,14)	(-11,6)	(-1,18)	(-10,5)	(6,33)	(42,8)	
L1D -28>	(1,41)	(-4,18)	(10,27)	(31,19)	(41,19)	(-14,13)	(28,102)	(29,62)	(96,60)	(2,54)	(83,32)	(5,26)	(34,7)	(3,36)	(32,1)	(0,4)	
L1D -27>	(26,13)	(1,31)	(-13,23)	(2,68)	(3,112)	(-1,35)	(73,4)	(40,21)	(31,21)	(19,5)	(5,35)	(8,117)	(29,21)	(27,126)	(4,16)	(12,8)	
L1D -26>	(5,23)	(26,75)	(-6,99)	(73,15)	(24,107)	(4,17)	(25,26)	(3,21)	(1,25)	(33,43)	(20,1)	(30,49)	(2,28)	(27,35)	(35,11)	(6,39)	
L1D -25>	(16,34)	(-1,28)	(1,37)	(12,19)	(5,15)	(24,19)	(7,26)	(25,57)	(2,27)	(4,32)	(41,31)	(-11,28)	(27,37)	(3,58)	(9,101)	(6,1)	
L1D -24>	(66,1)	(8,88)	(-1,35)	(23,11)	(0,18)	(-6,21)	(25,4)	(11,3)	(1,76)	(9,10)	(3,22)	(5,7)	(41,10)	(-42,5)	(24,69)	(2,99)	
L1D -23>	(1,58)	(-7,37)	(-1,25)	(18,29)	(25,49)	(22,50)	(23,85)	(-42,12)	(19,46)	(17,31)	(20,1)	(2,32)	(4,21)	(24,114)	(5,23)	(6,46)	
L1D -22>	(19,72)	(6,76)	(21,5)	(10,1)	(18,58)	(17,37)	(25,91)	(254,3)	(-42,15)	(-1,24)	(23,57)	(16,102)	(38,3)	(20,53)	(22,86)	(3,53)	
L1D -21>	(1,73)	(16,44)	(-1,21)	(-42,9)	(-2,5)	(6,25)	(20,12)	(-11,10)	(4,1)	(43,6)	(21,25)	(5,5)	(18,17)	(2,11)	(29,33)	(15,79)	
L1D -20>	(28,47)	(20,118)	(15,18)	(6,32)	(-2,27)	(3,4)	(239,1)	(23,3)	(-49,80)	(14,15)	(-15,8)	(0,17)	(-1,13)	(2,44)	(1,39)	(5,37)	
L1D -19>	(1,10)	(6,25)	(9,64)	(2,22)	(4,82)	(14,9)	(-47,1)	(29,20)	(-42,6)	(7,5)	(-14,9)	(16,6)	(5,4)	(13,5)	(15,17)	(3,4)	
L1D -18>	(19,43)	(4,96)	(22,12)	(14,59)	(1,46)	(17,11)	(2,15)	(11,21)	(13,11)	(3,56)	(15,14)	(6,69)	(-3,1)	(-42,19)	(-1,16)	(31,47)	
L1D -17>	(2,33)	(-45,1)	(8,80)	(1,68)	(16,6)	(6,42)	(22,33)	(5,4)	(-42,3)	(14,5)	(3,9)	(15,4)	(4,39)	(13,9)	(28,2)	(19,2)	
L1D -16>	(13,17)	(14,22)	(1,122)	(25,1)	(-26,3)	(6,25)	(11,24)	(2,13)	(15,19)	(12,14)	(3,42)	(4,94)	(16,16)	(5,17)	(-42,16)	(26,13)	
L1D -15>	(2,8)	(14,8)	(24,11)	(12,35)	(11,43)	(8,1)	(13,25)	(1,26)	(9,22)	(3,13)	(5,37)	(28,11)	(-42,14)	(10,18)	(6,47)	(4,91)	
L1D -14>	(1,35)	(12,13)	(43,6)	(23,5)	(0,1)	(3,17)	(9,7)	(-42,21)	(8,22)	(6,35)	(10,8)	(-60,4)	(2,8)	(11,14)	(4,103)	(5,42)	
L1D -13>	(28,43)	(1,26)	(-2,23)	(12,32)	(22,17)	(6,118)	(-1,1)	(9,20)	(10,35)	(4,98)	(2,41)	(8,72)	(-42,24)	(5,52)	(11,21)	(3,48)	
L1D -12>	(69,1)	(18,21)	(6,84)	(-42,40)	(1,100)	(43,20)	(11,26)	(7,11)	(13,29)	(-140,71)	(5,87)	(21,15)	(4,68)	(2,36)	(9,21)	(10,46)	
L1D -11>	(43,2)	(7,2)	(1,13)	(3,16)	(2,12)	(-18,3)	(4,90)	(18,11)	(17,2)	(20,6)	(6,16)	(10,10)	(-42,6)	(-7,1)	(9,7)	(5,17)	
L1D -10>	(6,40)	(4,118)	(117,1)	(14,3)	(28,16)	(9,86)	(1,84)	(2,99)	(43,15)	(8,17)	(19,10)	(5,69)	(3,61)	(-42,25)	(7,10)	(18,21)	
L1D -9>	(8,27)	(5,33)	(-42,32)	(15,51)	(6,65)	(-4,1)	(12,94)	(7,18)	(-14,33)	(10,41)	(4,61)	(3,20)	(13,20)	(2,66)	(43,17)	(1,48)	
L1D -8>	(1,83)	(5,12)	(8,101)	(6,26)	(-36,1)	(10,99)	(14,14)	(-4,59)	(-8,95)	(3,30)	(-11,8)	(-42,21)	(-32,6)	(4,87)	(2,83)	(7,50)	
L1D -7>	(6,43)	(1,75)	(11,8)	(7,45)	(5,47)	(-5,1)	(-1,14)	(-42,13)	(12,24)	(9,36)	(4,30)	(10,15)	(13,25)	(8,22)	(14,30)	(3,12)	
L1D -6>	(-8,26)	(-13,12)	(1,70)	(-12,1)	(-2,123)	(-9,33)	(-7,33)	(7,67)	(4,47)	(-3,17)	(-1,27)	(8,22)	(11,22)	(-15,17)	(10,40)	(5,72)	
L1D -5>	(-2,13)	(-5,6)	(-1,11)	(-19,1)	(4,30)	(1,17)	(-10,17)	(6,11)	(5,7)	(10,11)	(-3,101)	(-8,3)	(-4,6)	(-15,16)	(-11,3)	(8,22)	
L1D -4>	(-11,61)	(-13,9)	(-7,1)	(-15,57)	(2,4)	(3,38)	(-2,42)	(-1,30)	(-6,26)	(-17,15)	(4,24)	(-8,26)	(1,34)	(-4,88)	(-3,79)	(-5,33)	
L1D -3>	(2,68)	(0,55)	(3,61)	(-1,57)	(1,58)	(6,44)	(-12,1)	(-4,86)	(-11,71)	(-2,96)	(-15,64)	(-16,38)	(-9,16)	(4,73)	(-7,102)	(-5,88)	
L1D -2>	(-7,38)	(2,17)	(1,54)	(-1,40)	(-169,48)	(-18,1)	(-13,22)	(-8,46)	(5,35)	(-6,44)	(-15,43)	(-11,23)	(-3,64)	(-2,82)	(-5,67)	(-4,77)	
L1D -1>	(-7,13)	(-1,106)	(-11,5)	(174,13)	(345,1)	(-2,19)	(-19,15)	(2,12)	(173,7)	(-15,5)	(3,3)	(-4,2)	(4,4)	(0,16)	(25,6)	(-3,17)	
L1D 0>	(0,74)	(-10,1)	(33,1)	(7,1)	(306,1)	(20,1)	(3,2)	(-7,0)	(-3,0)	(-98,0)	(-12,0)	(364,0)	(1,4)	(11,0)	(2,1)	(5,1)	
L1D 1>	(1,69)	(-25,0)	(3,0)	(9,0)	(2,0)	(-1,0)	(-5,0)	(-2,1)	(8,1)	(34,0)	(10,0)	(37,0)	(84,0)	(-61,0)	(-11,0)	(73,0)	
L1D 2>	(6,92)	(171,1)	(1,115)	(2,64)	(-173,76)	(-3,10)	(5,21)	(3,49)	(21,16)	(8,45)	(-2,60)	(-42,33)	(23,26)	(-6,48)	(-1,22)	(4,64)	
L1D 3>	(14,30)	(1,73)	(2,79)	(-1,97)	(-11,43)	(-3,105)	(-7,31)	(-2,53)	(-174,114)	(8,26)	(-13,24)	(173,1)	(16,37)	(-10,65)	(5,67)	(3,94)	
L1D 4>	(-175,52)	(10,26)	(2,76)	(-1,35)	(21,31)	(3,50)	(169,40)	(-9,20)	(15,28)	(13,21)	(-4,53)	(18,1)	(1,39)	(-3,33)	(8,33)	(9,25)	
L1D 5>	(-4,51)	(-5,73)	(-1,91)	(9,36)	(18,16)	(1,83)	(22,18)	(2,28)	(13,21)	(6,32)	(21,46)	(-17,1)	(3,77)	(-2,77)	(-3,25)	(-18,25)	
L1D 6>	(-175,20)	(1,19)	(-1,37)	(-4,24)	(169,1)	(-6,50)	(-14,10)	(2,85)	(-2,10)	(-17,5)	(7,8)	(8,20)	(61,16)	(6,5)	(-5,5)	(-18,8)	
L1D 7>	(1,64)	(0,1)	(-1,44)	(-7,81)	(-8,116)	(-20,39)	(-13,15)	(-4,93)	(9,16)	(8,32)	(-2,21)	(-6,108)	(-3,22)	(-42,20)	(-5,16)	(-10,25)	
L1D 8>	(-8,108)	(-1,71)	(21,29)	(1,32)	(-13,27)	(-42,15)	(-3,34)	(7,11)	(5,32)	(-17,39)	(-6,36)	(8,79)	(-4,55)	(-2,39)	(-7,44)	(3,1)	
L1D 9>	(-1,14)	(-8,10)	(-2,49)	(-3,34)	(1,25)	(41,39)	(3,8)	(-42,9)	(-6,92)	(-7,25)	(-17,19)	(-102,20)	(-4,32)	(40,16)	(-5,11)	(64,1)	
L1D 10>	(-3,112)	(-2,52)	(-8,54)	(32,18)	(-10,13)	(3,64)	(1,94)	(-6,26)	(-17,10)	(0,1)	(-9,25)	(-5,13)	(-42,17)	(-4,36)	(-1,59)	(-7,19)	
L1D 11>	(-60,3)	(-42,14)	(-1,45)	(-10,6)	(1,5)	(-9,9)	(-4,106)	(-8,16)	(-17,11)	(-3,26)	(-20,5)	(-2,23)	(-6,13)	(-26,1)	(32,2)	(-7,11)	
L1D 12>	(-1,22)	(-2,65)	(-9,22)	(-6,34)	(-10,36)	(1,18)	(-5,82)	(-42,17)	(-11,19)	(-12,12)	(-3,100)	(-7,11)	(-4,29)	(-8,50)	(-30,1)	(21,9)	
L1D 13>	(-12,49)	(6,10)	(-1,22)	(-2,48)	(-6,96)	(1,8)	(-42,21)	(-10,39)	(-3,56)	(-18,1)	(-5,8)	(41,3)	(-4,22)	(4,10)	(-11,44)	(-9,30)	
L1D 14>	(-13,15)	(-42,18)	(-1,19)	(-2,40)	(-25,11)	(-12,13)	(-6,17)	(-11,18)	(-31,76)	(-10,12)	(-3,1)	(-7,22)	(6,10)	(28,46)	(8,9)	(5,30)	
L1D 15>	(-11,98)	(-4,89)	(7,1)	(-42,46)	(-6,43)	(32,20)	(-3,46)	(-9,21)	(-10,68)	(-12,28)	(-1,11)	(-2,21)	(-13,45)	(10,11)	(-5,52)	(-14,41)	
L1D 16>	(1,4)	(6,1)	(-1,105)	(-13,15)	(-42,18)	(7,8)	(-18,5)	(-14,14)	(-12,3)	(-25,4)	(-2,14)	(-4,34)	(-6,10)	(41,8)	(13,6)	(40,5)	
L1D 17>	(-2,125)	(41,19)	(-14,46)	(0,18)	(-5,1)	(17,12)	(-6,8)	(-4,32)	(-60,7)	(-13,57)	(-3,11)	(7,68)	(-10,14)	(-42,52)	(-15,53)	(1,4)	
L1D 18>	(-17,53)	(-11,1)	(-1,18)	(-5,6)	(28,18)	(-2,28)	(-16,48)	(21,13)	(-60,4)	(-14,39)	(-42,67)	(-6,16)	(-20,3)	(-3,85)	(-15,81)	(-13,26)	
L1D 19>	(12,15)	(-18,16)	(28,18)	(-37,65)	(1,50)	(-4,44)	(46,1)	(-32,21)	(-16,10)	(-42,26)	(-1,30)	(-2,13)	(-17,8)	(8,11)	(-15,35)	(-5,12)	
L1D 20>	(-1,14)	(-19,16)	(-42,9)	(-18,9)	(13,14)	(-15,5)	(2,46)	(-36,10)	(-5,15)	(-4,3)	(-17,8)	(-2,11)	(-20,73)	(-16,20)	(-6,10)	(-3,12)	
L1D 21>	(-18,52)	(-19,81)	(-22,17)	(1,9)	(9,18)	(-4,26)	(-2,62)	(-1,20)	(-42,21)	(-15,12)	(130,1)	(-13,80)	(-3,31)	(-17,42)	(-21,20)	(-16,14)	
L1D 22>	(-1,90)	(-19,27)	(-20,34)	(-21,23)	(-18,101)	(-23,96)	(-42,40)	(-17,37)	(146,16)	(-4,50)	(-16,13)	(-2,11)	(2,24)	(-41,1)	(-5,26)	(-3,32)	
L1D 23>	(-60,1)	(-20,26)	(-6,10)	(-1,15)	(-24,33)	(-18,55)	(-5,4)	(-23,8)	(-3,14)	(-4,57)	(-17,29)	(-42,34)	(-19,74)	(-21,32)	(-2,42)	(0,9)	
L1D 24>	(-21,42)	(3,13)	(-18,1)	(-20,3)	(-1,70)	(-25,16)	(-41,0)	(-42,15)	(-23,3)	(-19,6)	(-4,4)	(-5,14)	(6,9)	(-3,11)	(-22,7)	(-17,2)	
L1D 25>	(2,19)	(-26,22)	(130,24)	(-17,2)	(-1,96)	(-21,35)	(-4,26)	(-40,21)	(-20,7)	(15,11)	(-2,53)	(-27,14)	(-42,32)	(16,4)	(-23,14)	(-19,25)	
L1D 26>	(-26,18)	(-23,19)	(-27,70)	(-3,80)	(-24,1)	(130,32)	(54,24)	(0,15)	(-21,21)	(-42,125)	(-30,16)	(-22,38)	(-41,31)	(-40,7)	(-25,4)	(2,17)	
L1D 27>	(-42,104)	(1,16)	(-40,32)	(-24,18)	(-25,20)	(-27,10)	(-31,21)	(63,1)	(-4,53)	(-28,44)	(-29,7)	(-23,36)	(-26,18)	(130,28)	(14,9)	(-41,47)	
L1D 28>	(-40,4)	(-42,17)	(-1,5)	(-14,1)	(-11,15)	(12,1)	(-85,1)	(-2,86)	(-26,3)	(-41,31)	(-33,2)	(66,6)	(-29,13)	(-27,1)	(-22,2)	(-5,6)	
L1D 29>	(59,15)	(-19,1)	(-21,82)	(-20,29)	(-27,6)	(-24,27)	(-30,19)	(-40,11)	(-41,3)	(-31,35)	(-42,61)	(-5,4)	(-13,19)	(11,2)	(-6,7)	(1,18)	
L1D 30>	(-1,12)	(10,5)	(-41,5)	(-32,65)	(-42,90)	(-24,29)	(7,18)	(0,13)	(-27,16)	(-28,5)	(58,1)	(-29,7)	(-31,28)	(-26,20)	(-40,12)	(-39,23)	
L1D 31>	(-42,87)	(9,11)	(-6,23)	(0,16)	(-3,91)	(-32,35)	(-2,25)	(10,20)	(-4,1)	(2,10)	(6,3)	(-40,33)	(-7,11)	(1,22)	(-41,20)	(-12,6)	
L1D 32>	(-33,21)	(0,5)	(-29,21)	(33,28)	(-3,15)	(10,9)	(-42,73)	(-25,11)	(2,1)	(-2,21)	(-31,23)	(63,2)	(-27,54)	(-12,5)	(-1,32)	(-30,9)	
L1D 33>	(-40,27)	(9,8)	(8,8)	(4,2)	(-1,54)	(-17,45)	(2,10)	(-2,2)	(-34,41)	(-4,49)	(-38,1)	(-7,6)	(1,1)	(0,7)	(-42,105)	(-41,13)	
L1D 34>	(-33,95)	(13,1)	(-36,1)	(-39,1)	(5,2)	(2,13)	(-1,1)	(1,10)	(-42,24)	(-40,1)	(-35,12)	(-41,5)	(-8,1)	(0,3)	(7,3)	(-32,4)	
L1D 35>	(1,7)	(-34,120)	(-117,1)	(-41,5)	(3,3)	(7,4)	(6,2)	(-33,17)	(4,8)	(-42,83)	(-4,4)	(-36,23)	(-37,7)	(-40,8)	(10,5)	(2,21)	
L1D 36>	(-42,46)	(128,2)	(10,4)	(-34,14)	(-3,2)	(-39,0)	(2,4)	(-41,6)	(5,1)	(-2,11)	(-35,70)	(-37,15)	(-40,9)	(0,3)	(58,3)	(7,16)	
L1D 37>	(-7,58)	(-39,6)	(-41,8)	(6,76)	(-1,2)	(-42,31)	(-6,9)	(5,2)	(-40,28)	(-38,22)	(-139,1)	(0,5)	(1,4)	(-12,4)	(-47,1)	(8,3)	
L1D 38>	(76,1)	(-42,20)	(1,1)	(-8,2)	(0,2)	(-12,1)	(-13,3)	(-39,124)	(11,2)	(-40,4)	(-5,1)	(-14,1)	(-43,5)	(-41,4)	(3,1)	(-45,1)	
L1D 39>	(21,1)	(-45,3)	(-43,5)	(11,6)	(-21,2)	(7,1)	(-99,1)	(2,1)	(-10,1)	(-42,27)	(13,4)	(-2,1)	(-40,124)	(-9,1)	(43,4)	(-41,3)	
L1D 40>	(-44,20)	(-46,29)	(-35,36)	(-8,10)	(-15,46)	(13,1)	(-58,7)	(-45,25)	(-41,52)	(-1,9)	(1,13)	(-43,38)	(-42,110)	(-3,10)	(-11,18)	(-40,13)	
L1D 41>	(-38,26)	(-45,15)	(-13,4)	(-12,10)	(-8,6)	(-44,19)	(-42,104)	(-1,51)	(-37,1)	(-19,2)	(-3,25)	(-15,11)	(-4,10)	(-11,14)	(-2,13)	(-43,28)	
L1D 42>	(32,1)	(-43,124)	(30,25)	(-1,35)	(10,16)	(-46,12)	(-9,22)	(-2,71)	(-4,5)	(31,20)	(-6,14)	(-12,8)	(-15,15)	(-60,10)	(-42,44)	(-41,16)	
L1D 43>	(-40,33)	(3,13)	(-41,9)	(2,37)	(71,12)	(-42,99)	(6,6)	(0,33)	(21,1)	(4,7)	(5,9)	(8,14)	(-44,10)	(13,6)	(1,8)	(-35,6)	
L1D 44>	(-44,24)	(4,1)	(-42,78)	(-3,2)	(-41,8)	(-2,1)	(11,3)	(-118,3)	(-45,12)	(2,9)	(-1,10)	(-4,3)	(1,17)	(-40,16)	(-43,6)	(0,4)	
L1D 45>	(-60,6)	(2,1)	(1,11)	(-42,67)	(-41,4)	(-1,4)	(-4,6)	(96,16)	(-40,12)	(-6,2)	(-44,5)	(-8,37)	(-9,5)	(-2,4)	(-46,8)	(-5,7)	
L1D 46>	(6,13)	(-52,9)	(95,95)	(-42,112)	(87,7)	(14,1)	(-41,4)	(-43,14)	(-48,16)	(-47,21)	(-6,8)	(-1,29)	(-3,6)	(2,19)	(-2,21)	(-60,4)	
L1D 47>	(-146,2)	(-60,5)	(-42,68)	(-4,9)	(96,12)	(-2,9)	(4,1)	(0,4)	(-48,15)	(-44,6)	(1,17)	(-45,1)	(-43,8)	(-3,5)	(-1,5)	(-126,4)	
L1D 48>	(-134,2)	(3,1)	(-49,23)	(0,7)	(-5,3)	(-2,21)	(-45,14)	(-42,105)	(-44,16)	(61,11)	(-43,7)	(-4,37)	(-3,5)	(-60,8)	(-1,17)	(-46,5)	
L1D 49>	(1,5)	(-60,9)	(96,22)	(-42,121)	(-1,10)	(44,5)	(-43,7)	(10,1)	(41,5)	(-50,23)	(-3,14)	(-2,15)	(-47,5)	(-4,13)	(19,3)	(-5,13)	
L1D 50>	(5,1)	(-42,116)	(-60,10)	(57,11)	(1,98)	(-3,5)	(-48,10)	(-51,31)	(-1,3)	(-5,16)	(-2,15)	(0,2)	(-43,8)	(-45,3)	(21,3)	(-7,5)	
L1D 51>	(-52,68)	(-55,7)	(-12,9)	(-60,13)	(-3,21)	(-42,125)	(-4,22)	(1,42)	(3,4)	(-8,15)	(-38,1)	(42,19)	(-1,7)	(96,10)	(2,13)	(-48,12)	
L1D 52>	(-7,6)	(1,5)	(-43,5)	(-53,3)	(-60,6)	(-3,2)	(-42,68)	(11,1)	(-14,1)	(2,13)	(-52,3)	(-38,7)	(-46,1)	(-1,5)	(-4,6)	(-9,5)	
L1D 53>	(-13,124)	(-4,8)	(-60,9)	(4,4)	(-42,84)	(-10,10)	(6,8)	(14,18)	(-43,9)	(-61,2)	(1,6)	(-51,1)	(-52,5)	(-2,2)	(2,17)	(-18,2)	
L1D 54>	(2,3)	(-42,107)	(-1,23)	(-19,3)	(-60,15)	(-63,6)	(-61,3)	(-9,7)	(5,3)	(-2,7)	(107,5)	(-53,6)	(1,16)	(-11,13)	(-52,2)	(108,23)	
L1D 55>	(-1,6)	(-13,91)	(-60,8)	(-62,23)	(-42,71)	(-12,6)	(-54,9)	(-2,12)	(4,1)	(-43,2)	(121,1)	(-45,2)	(-107,3)	(-44,2)	(-65,5)	(1,1)	
L1D 56>	(-42,64)	(-1,12)	(-66,10)	(4,1)	(-11,7)	(-59,2)	(2,9)	(-54,5)	(-52,4)	(-68,18)	(-67,25)	(-65,11)	(-3,2)	(-13,14)	(-62,2)	(1,4)	
L1D 57>	(-60,8)	(-4,1)	(-42,69)	(-75,3)	(-63,11)	(-70,1)	(-52,13)	(-2,10)	(-20,2)	(-57,8)	(-44,2)	(-12,6)	(-11,2)	(-1,20)	(-59,4)	(-58,6)	
L1D 58>	(-4,33)	(-64,18)	(-3,17)	(-152,6)	(-8,2)	(-42,65)	(-15,8)	(-14,7)	(-59,10)	(1,13)	(-151,1)	(-1,49)	(-2,68)	(-60,32)	(-62,4)	(-56,4)	
L1D 59>	(-60,41)	(-2,88)	(-3,14)	(-42,49)	(-63,7)	(-88,15)	(-16,6)	(-49,10)	(-9,1)	(-44,7)	(-62,7)	(-11,17)	(-1,37)	(-14,6)	(-4,5)	(-61,8)	
[...]
L1D 484>	(1,0)	(1,0)	(1,0)	(1,0)	(1,0)	(1,0)	(1,0)	(1,0)	(1,0)	(1,0)	(1,0)	(1,0)	(1,0)	(1,0)	(1,0)	(1,0)	
L1D 485>	(4,4)	(1,0)	(1,0)	(1,0)	(1,0)	(1,0)	(1,0)	(1,0)	(1,0)	(1,0)	(1,0)	(1,0)	(1,0)	(1,0)	(1,0)	(1,0)	
L1D 486>	(4,2)	(-92,1)	(1,1)	(1,0)	(1,0)	(1,0)	(1,0)	(1,0)	(1,0)	(1,0)	(1,0)	(1,0)	(1,0)	(1,0)	(1,0)	(1,0)	
L1D 487>	(1,0)	(1,0)	(1,0)	(1,0)	(1,0)	(1,0)	(1,0)	(1,0)	(1,0)	(1,0)	(1,0)	(1,0)	(1,0)	(1,0)	(1,0)	(1,0)	
L1D 488>	(1,0)	(1,0)	(1,0)	(1,0)	(1,0)	(1,0)	(1,0)	(1,0)	(1,0)	(1,0)	(1,0)	(1,0)	(1,0)	(1,0)	(1,0)	(1,0)	
L1D 489>	(4,1)	(0,1)	(1,0)	(1,0)	(1,0)	(1,0)	(1,0)	(1,0)	(1,0)	(1,0)	(1,0)	(1,0)	(1,0)	(1,0)	(1,0)	(1,0)	
L1D 490>	(-491,1)	(1,2)	(-204,1)	(0,1)	(1,0)	(1,0)	(1,0)	(1,0)	(1,0)	(1,0)	(1,0)	(1,0)	(1,0)	(1,0)	(1,0)	(1,0)	
L1D 491>	(-491,1)	(1,1)	(1,0)	(1,0)	(1,0)	(1,0)	(1,0)	(1,0)	(1,0)	(1,0)	(1,0)	(1,0)	(1,0)	(1,0)	(1,0)	(1,0)	
L1D 492>	(1,1)	(-10,1)	(2,1)	(0,1)	(-48,1)	(-492,1)	(1,0)	(1,0)	(1,0)	(1,0)	(1,0)	(1,0)	(1,0)	(1,0)	(1,0)	(1,0)	
L1D 493>	(4,1)	(1,0)	(1,0)	(1,0)	(1,0)	(1,0)	(1,0)	(1,0)	(1,0)	(1,0)	(1,0)	(1,0)	(1,0)	(1,0)	(1,0)	(1,0)	
L1D 494>	(1,2)	(-10,1)	(1,0)	(1,0)	(1,0)	(1,0)	(1,0)	(1,0)	(1,0)	(1,0)	(1,0)	(1,0)	(1,0)	(1,0)	(1,0)	(1,0)	
L1D 495>	(4,1)	(1,0)	(1,0)	(1,0)	(1,0)	(1,0)	(1,0)	(1,0)	(1,0)	(1,0)	(1,0)	(1,0)	(1,0)	(1,0)	(1,0)	(1,0)	
L1D 496>	(1,0)	(1,0)	(1,0)	(1,0)	(1,0)	(1,0)	(1,0)	(1,0)	(1,0)	(1,0)	(1,0)	(1,0)	(1,0)	(1,0)	(1,0)	(1,0)	
L1D 497>	(1,0)	(1,0)	(1,0)	(1,0)	(1,0)	(1,0)	(1,0)	(1,0)	(1,0)	(1,0)	(1,0)	(1,0)	(1,0)	(1,0)	(1,0)	(1,0)	
L1D 498>	(4,1)	(1,0)	(1,0)	(1,0)	(1,0)	(1,0)	(1,0)	(1,0)	(1,0)	(1,0)	(1,0)	(1,0)	(1,0)	(1,0)	(1,0)	(1,0)	
L1D 499>	(1,0)	(1,0)	(1,0)	(1,0)	(1,0)	(1,0)	(1,0)	(1,0)	(1,0)	(1,0)	(1,0)	(1,0)	(1,0)	(1,0)	(1,0)	(1,0)	
L1D 500>	(-488,1)	(1,0)	(1,0)	(1,0)	(1,0)	(1,0)	(1,0)	(1,0)	(1,0)	(1,0)	(1,0)	(1,0)	(1,0)	(1,0)	(1,0)	(1,0)	
L1D 501>	(4,1)	(1,0)	(1,0)	(1,0)	(1,0)	(1,0)	(1,0)	(1,0)	(1,0)	(1,0)	(1,0)	(1,0)	(1,0)	(1,0)	(1,0)	(1,0)	
L1D 502>	(1,1)	(1,0)	(1,0)	(1,0)	(1,0)	(1,0)	(1,0)	(1,0)	(1,0)	(1,0)	(1,0)	(1,0)	(1,0)	(1,0)	(1,0)	(1,0)	
L1D 503>	(4,1)	(1,0)	(1,0)	(1,0)	(1,0)	(1,0)	(1,0)	(1,0)	(1,0)	(1,0)	(1,0)	(1,0)	(1,0)	(1,0)	(1,0)	(1,0)	
L1D 504>	(1,0)	(1,0)	(1,0)	(1,0)	(1,0)	(1,0)	(1,0)	(1,0)	(1,0)	(1,0)	(1,0)	(1,0)	(1,0)	(1,0)	(1,0)	(1,0)	
L1D 505>	(1,0)	(1,0)	(1,0)	(1,0)	(1,0)	(1,0)	(1,0)	(1,0)	(1,0)	(1,0)	(1,0)	(1,0)	(1,0)	(1,0)	(1,0)	(1,0)	
L1D 506>	(0,1)	(1,0)	(1,0)	(1,0)	(1,0)	(1,0)	(1,0)	(1,0)	(1,0)	(1,0)	(1,0)	(1,0)	(1,0)	(1,0)	(1,0)	(1,0)	
L1D 507>	(1,0)	(1,0)	(1,0)	(1,0)	(1,0)	(1,0)	(1,0)	(1,0)	(1,0)	(1,0)	(1,0)	(1,0)	(1,0)	(1,0)	(1,0)	(1,0)	
L1D 508>	(1,0)	(1,0)	(1,0)	(1,0)	(1,0)	(1,0)	(1,0)	(1,0)	(1,0)	(1,0)	(1,0)	(1,0)	(1,0)	(1,0)	(1,0)	(1,0)	
L1D 509>	(1,0)	(1,0)	(1,0)	(1,0)	(1,0)	(1,0)	(1,0)	(1,0)	(1,0)	(1,0)	(1,0)	(1,0)	(1,0)	(1,0)	(1,0)	(1,0)	
L1D 510>	(1,0)	(1,0)	(1,0)	(1,0)	(1,0)	(1,0)	(1,0)	(1,0)	(1,0)	(1,0)	(1,0)	(1,0)	(1,0)	(1,0)	(1,0)	(1,0)	
L1D 511>	(1,0)	(1,0)	(1,0)	(1,0)	(1,0)	(1,0)	(1,0)	(1,0)	(1,0)	(1,0)	(1,0)	(1,0)	(1,0)	(1,0)	(1,0)	(1,0)	

L2C -64>	(1,40)	(-1,32)	(-22,15)	(43,10)	(-43,24)	(4,3)	(2,16)	(0,18)	(13,1)	(-16,4)	(-44,8)	(3,4)	(42,7)	(-3,4)	(-2,174)	(21,17)	
L2C -63>	(0,2)	(41,16)	(42,21)	(19,6)	(20,1)	(22,4)	(1,0)	(1,0)	(1,0)	(1,0)	(1,0)	(1,0)	(1,0)	(1,0)	(1,0)	(1,0)	
L2C -62>	(58,1)	(1,6)	(18,1)	(2,7)	(-1,1)	(37,1)	(31,1)	(4,1)	(43,1)	(13,1)	(1,0)	(1,0)	(1,0)	(1,0)	(1,0)	(1,0)	
L2C -61>	(1,3)	(5,1)	(41,4)	(17,1)	(31,1)	(14,1)	(19,1)	(40,1)	(43,1)	(18,1)	(0,1)	(9,1)	(1,0)	(1,0)	(1,0)	(1,0)	
L2C -60>	(-2,1)	(11,1)	(1,4)	(18,1)	(43,1)	(13,1)	(1,0)	(1,0)	(1,0)	(1,0)	(1,0)	(1,0)	(1,0)	(1,0)	(1,0)	(1,0)	
L2C -59>	(1,10)	(44,1)	(9,1)	(57,1)	(3,3)	(2,4)	(-1,2)	(31,1)	(4,1)	(54,1)	(23,1)	(25,1)	(11,1)	(18,1)	(15,2)	(17,1)	
L2C -58>	(1,27)	(8,1)	(5,1)	(44,2)	(9,2)	(-1,3)	(22,1)	(34,1)	(25,1)	(47,2)	(17,1)	(51,1)	(28,1)	(21,2)	(18,1)	(20,1)	
L2C -57>	(1,234)	(44,1)	(6,1)	(47,1)	(1,0)	(1,0)	(1,0)	(1,0)	(1,0)	(1,0)	(1,0)	(1,0)	(1,0)	(1,0)	(1,0)	(1,0)	
L2C -56>	(1,13)	(27,3)	(14,1)	(12,1)	(-2,1)	(21,5)	(9,8)	(3,2)	(28,2)	(24,1)	(22,2)	(8,6)	(17,1)	(49,1)	(13,1)	(-3,1)	
L2C -55>	(6,6)	(49,3)	(0,6)	(1,14)	(3,7)	(-2,11)	(28,2)	(11,2)	(14,1)	(21,14)	(4,4)	(24,1)	(23,5)	(-1,11)	(10,1)	(8,2)	
L2C -54>	(-1,59)	(1,25)	(3,7)	(6,6)	(52,2)	(28,8)	(34,3)	(-6,1)	(26,19)	(9,1)	(-7,1)	(8,2)	(2,7)	(54,2)	(23,2)	(21,2)	
L2C -53>	(1,20)	(54,4)	(-2,5)	(21,4)	(20,1)	(-1,63)	(4,8)	(38,2)	(2,2)	(26,4)	(3,23)	(22,3)	(45,2)	(0,17)	(33,2)	(17,2)	
L2C -52>	(1,103)	(22,27)	(2,9)	(8,3)	(23,6)	(26,21)	(24,6)	(3,2)	(-4,2)	(-1,72)	(28,30)	(44,5)	(27,3)	(0,1)	(33,1)	(13,17)	
L2C -51>	(1,59)	(8,12)	(16,16)	(0,40)	(-1,165)	(51,6)	(52,6)	(53,1)	(45,8)	(27,2)	(6,63)	(-6,6)	(15,127)	(29,50)	(7,210)	(14,7)	
L2C -50>	(-2,40)	(29,44)	(-3,9)	(21,109)	(-1,164)	(1,177)	(44,40)	(9,37)	(55,1)	(7,48)	(8,18)	(15,75)	(6,43)	(26,26)	(20,8)	(22,53)	
L2C -49>	(-1,24)	(21,20)	(14,59)	(20,11)	(-2,1)	(1,41)	(0,12)	(48,4)	(7,28)	(6,49)	(-3,12)	(-4,6)	(27,8)	(43,12)	(8,11)	(28,2)	
L2C -48>	(8,7)	(15,7)	(43,4)	(48,1)	(-1,14)	(42,13)	(27,9)	(-2,27)	(1,36)	(49,4)	(33,6)	(-4,3)	(30,2)	(3,2)	(13,5)	(-3,2)	
L2C -47>	(30,2)	(1,25)	(22,10)	(2,8)	(48,6)	(45,9)	(-3,4)	(44,4)	(13,2)	(25,2)	(6,1)	(-1,50)	(-2,11)	(33,1)	(27,3)	(10,5)	
L2C -46>	(22,17)	(42,3)	(1,35)	(3,83)	(43,24)	(2,8)	(44,253)	(38,25)	(6,1)	(-1,38)	(27,2)	(50,1)	(24,49)	(45,60)	(0,2)	(23,6)	
L2C -45>	(44,18)	(23,3)	(2,114)	(21,5)	(43,58)	(-1,139)	(37,0)	(22,37)	(1,37)	(24,6)	(41,0)	(3,3)	(-2,0)	(46,7)	(0,1)	(42,1)	
L2C -44>	(22,217)	(1,133)	(42,4)	(28,0)	(2,1)	(43,49)	(23,8)	(21,26)	(45,4)	(44,0)	(24,0)	(20,2)	(-1,20)	(3,0)	(8,0)	(0,0)	
L2C -43>	(21,138)	(28,0)	(44,5)	(22,126)	(43,37)	(1,91)	(-1,25)	(42,3)	(23,0)	(20,0)	(-2,0)	(-5,0)	(0,14)	(16,0)	(45,0)	(-6,0)	
L2C -42>	(44,1)	(1,25)	(43,56)	(20,3)	(3,0)	(2,0)	(21,161)	(-1,22)	(22,5)	(42,7)	(0,24)	(19,0)	(41,5)	(-2,0)	(45,0)	(23,0)	
L2C -41>	(1,224)	(22,65)	(-3,2)	(19,17)	(20,23)	(-2,93)	(44,12)	(21,33)	(42,21)	(43,153)	(40,7)	(41,1)	(0,30)	(23,2)	(-1,83)	(2,5)	
L2C -40>	(1,90)	(43,214)	(-3,147)	(0,23)	(-10,19)	(-2,70)	(-1,193)	(22,109)	(21,96)	(34,7)	(42,58)	(41,101)	(39,4)	(19,116)	(20,60)	(44,13)	
L2C -39>	(1,141)	(4,2)	(-15,1)	(15,1)	(2,5)	(40,3)	(-14,1)	(-3,2)	(38,3)	(10,1)	(8,1)	(-1,1)	(9,1)	(48,1)	(42,2)	(-17,1)	
L2C -38>	(40,12)	(1,96)	(19,32)	(8,18)	(21,10)	(39,27)	(33,5)	(32,1)	(2,13)	(0,8)	(-1,10)	(-2,8)	(38,3)	(3,13)	(17,3)	(-22,2)	
L2C -37>	(8,10)	(2,26)	(-1,45)	(37,19)	(40,13)	(1,66)	(51,3)	(-19,1)	(15,7)	(41,4)	(6,8)	(-7,12)	(26,2)	(-2,3)	(3,9)	(0,10)	
L2C -36>	(-1,68)	(1,187)	(14,30)	(-8,172)	(6,68)	(2,111)	(7,51)	(3,20)	(-21,149)	(-20,19)	(16,5)	(32,1)	(-15,11)	(-19,55)	(31,16)	(-7,37)	
L2C -35>	(-22,27)	(7,44)	(-1,99)	(14,68)	(1,129)	(16,6)	(-9,31)	(6,38)	(8,22)	(2,46)	(-7,7)	(-8,19)	(36,8)	(0,1)	(-20,20)	(39,7)	
L2C -34>	(3,7)	(2,29)	(1,63)	(-21,69)	(20,9)	(38,5)	(-1,66)	(40,9)	(6,15)	(33,21)	(-23,31)	(-2,56)	(24,1)	(10,4)	(35,10)	(11,4)	
L2C -33>	(34,9)	(1,78)	(-7,47)	(38,7)	(6,6)	(20,8)	(2,55)	(-1,55)	(-16,5)	(-3,9)	(-9,7)	(33,1)	(31,3)	(8,6)	(47,3)	(3,36)	
L2C -32>	(1,62)	(3,28)	(-21,8)	(25,4)	(37,1)	(32,2)	(14,4)	(-12,4)	(9,9)	(-1,34)	(2,68)	(30,8)	(39,3)	(11,3)	(43,9)	(21,9)	
L2C -31>	(1,89)	(2,56)	(39,5)	(4,5)	(26,3)	(29,4)	(-1,29)	(-6,5)	(9,3)	(3,25)	(24,10)	(23,5)	(45,1)	(-15,3)	(-20,2)	(22,3)	
L2C -30>	(1,197)	(-1,38)	(8,22)	(3,11)	(2,63)	(-20,40)	(21,14)	(16,140)	(14,68)	(-17,3)	(9,17)	(22,17)	(43,7)	(-9,5)	(-6,10)	(31,1)	
L2C -29>	(30,7)	(-8,15)	(1,248)	(15,111)	(16,4)	(8,38)	(7,21)	(5,2)	(-1,187)	(43,5)	(44,9)	(-21,254)	(13,4)	(2,34)	(28,4)	(-14,17)	
L2C -28>	(-1,59)	(2,19)	(7,12)	(21,211)	(20,7)	(-23,3)	(15,64)	(-14,1)	(-22,36)	(-13,6)	(8,3)	(6,10)	(1,22)	(35,24)	(22,4)	(14,57)	
L2C -27>	(41,10)	(27,45)	(1,54)	(21,74)	(-8,132)	(6,96)	(28,16)	(50,11)	(-14,1)	(-2,13)	(-1,96)	(26,13)	(20,26)	(3,21)	(19,6)	(-6,44)	
L2C -26>	(14,33)	(20,23)	(45,11)	(1,51)	(4,27)	(-1,53)	(27,37)	(12,14)	(-3,9)	(-13,11)	(21,9)	(2,22)	(11,9)	(19,10)	(-2,9)	(0,1)	
L2C -25>	(1,193)	(0,29)	(21,9)	(2,40)	(-1,84)	(45,48)	(-7,1)	(4,13)	(25,48)	(6,33)	(22,11)	(46,3)	(7,16)	(26,10)	(43,5)	(3,18)	
L2C -24>	(21,28)	(22,97)	(23,20)	(43,94)	(46,25)	(-22,76)	(6,1)	(44,22)	(1,206)	(2,33)	(-19,9)	(3,31)	(45,22)	(-1,33)	(-21,117)	(0,19)	
L2C -23>	(2,9)	(-20,1)	(22,99)	(20,3)	(-21,9)	(21,2)	(-1,7)	(0,9)	(10,0)	(24,4)	(-22,6)	(1,185)	(13,0)	(44,0)	(43,6)	(-2,0)	
L2C -22>	(-21,223)	(-22,40)	(22,31)	(-23,2)	(43,169)	(42,16)	(21,8)	(0,3)	(1,18)	(20,0)	(45,1)	(44,32)	(32,0)	(-1,1)	(-20,1)	(3,0)	
L2C -21>	(-21,89)	(42,62)	(43,243)	(22,41)	(-22,228)	(21,42)	(-23,1)	(3,1)	(0,1)	(20,3)	(-1,13)	(41,9)	(1,1)	(45,0)	(44,3)	(-19,0)	
L2C -20>	(-1,176)	(20,8)	(1,117)	(18,1)	(-21,28)	(43,101)	(21,69)	(-3,14)	(27,1)	(42,15)	(-2,16)	(41,8)	(22,46)	(-22,106)	(-23,20)	(19,8)	
L2C -19>	(-2,180)	(22,204)	(-1,161)	(42,58)	(-21,178)	(20,57)	(1,156)	(43,210)	(-23,34)	(-3,30)	(41,30)	(2,40)	(-15,1)	(-22,220)	(19,48)	(21,131)	
L2C -18>	(1,204)	(-18,2)	(-6,3)	(43,15)	(18,1)	(-2,2)	(0,1)	(-33,1)	(5,3)	(19,11)	(-22,1)	(21,21)	(22,2)	(-21,1)	(-30,1)	(-1,13)	
L2C -17>	(-7,6)	(2,18)	(1,189)	(18,78)	(5,4)	(19,27)	(-2,99)	(-1,8)	(3,21)	(15,5)	(27,3)	(24,1)	(-24,4)	(42,2)	(29,2)	(10,2)	
L2C -16>	(1,140)	(-1,23)	(16,167)	(17,20)	(2,78)	(15,7)	(0,76)	(22,19)	(8,22)	(31,1)	(-5,6)	(-6,5)	(14,37)	(3,64)	(5,7)	(24,11)	
L2C -15>	(1,229)	(56,1)	(-4,4)	(16,23)	(28,7)	(30,12)	(-1,105)	(22,75)	(0,7)	(8,33)	(2,25)	(7,12)	(29,7)	(-9,9)	(13,19)	(21,50)	
L2C -14>	(-1,149)	(8,114)	(6,126)	(1,141)	(28,28)	(-15,157)	(-13,17)	(21,2)	(35,12)	(22,20)	(15,114)	(12,14)	(-6,26)	(14,152)	(7,82)	(-14,44)	
L2C -13>	(-1,191)	(1,118)	(12,97)	(22,6)	(14,85)	(28,18)	(-2,6)	(9,16)	(-15,18)	(6,42)	(5,51)	(13,101)	(2,25)	(-6,1)	(7,23)	(0,38)	
L2C -12>	(13,38)	(26,8)	(21,15)	(-1,142)	(-10,34)	(-22,7)	(-2,17)	(11,15)	(7,8)	(14,12)	(1,80)	(6,1)	(-3,6)	(3,16)	(8,11)	(-8,17)	
L2C -11>	(-2,50)	(1,208)	(12,47)	(-9,26)	(14,91)	(2,1)	(17,20)	(-6,10)	(3,25)	(9,30)	(-14,14)	(13,39)	(-1,87)	(0,33)	(26,20)	(18,26)	
L2C -10>	(11,38)	(31,111)	(22,22)	(4,11)	(1,178)	(24,118)	(-4,16)	(9,89)	(16,38)	(7,21)	(-1,144)	(0,62)	(15,1)	(2,111)	(10,18)	(14,14)	
L2C -9>	(1,175)	(15,26)	(14,7)	(16,57)	(17,28)	(24,12)	(9,30)	(-1,25)	(6,5)	(2,29)	(-13,12)	(7,67)	(-12,6)	(12,1)	(8,135)	(-5,7)	
L2C -8>	(2,60)	(1,158)	(59,1)	(-13,46)	(-14,33)	(-1,64)	(8,167)	(-9,16)	(7,185)	(-12,13)	(-6,34)	(16,15)	(28,13)	(15,42)	(-7,43)	(9,56)	
L2C -7>	(-5,1)	(1,200)	(21,10)	(20,5)	(8,143)	(0,101)	(-1,242)	(14,22)	(-21,33)	(-7,43)	(6,113)	(-9,5)	(-6,17)	(7,222)	(-8,17)	(15,30)	
L2C -6>	(1,128)	(8,19)	(-1,77)	(0,19)	(-9,6)	(-14,21)	(-10,3)	(14,24)	(-3,1)	(-8,33)	(-15,3)	(6,88)	(9,2)	(12,9)	(7,51)	(-7,19)	
L2C -5>	(1,151)	(8,131)	(-1,214)	(2,57)	(27,22)	(-7,25)	(13,1)	(6,92)	(4,80)	(-2,46)	(-30,4)	(-6,21)	(7,51)	(3,43)	(5,191)	(0,176)	
L2C -4>	(1,197)	(5,116)	(44,30)	(2,101)	(7,39)	(14,11)	(0,57)	(4,57)	(-1,236)	(6,24)	(-9,48)	(-16,1)	(-2,57)	(45,76)	(-19,12)	(3,92)	
L2C -3>	(4,33)	(1,166)	(-19,16)	(-21,10)	(22,16)	(-7,1)	(-1,131)	(45,5)	(2,109)	(-20,8)	(23,2)	(43,9)	(-43,10)	(3,16)	(5,8)	(0,11)	
L2C -2>	(-43,0)	(-15,0)	(1,192)	(22,1)	(43,0)	(-7,0)	(-5,0)	(-1,1)	(2,13)	(44,0)	(21,0)	(-42,0)	(3,0)	(-20,0)	(0,180)	(-22,0)	
L2C -1>	(0,158)	(-1,6)	(4,9)	(-41,2)	(1,160)	(23,1)	(3,2)	(7,3)	(21,1)	(44,4)	(-21,6)	(-19,1)	(2,55)	(22,30)	(-15,3)	(24,1)	
L2C 0>	(-8,0)	(-22,0)	(-9,0)	(1,148)	(0,124)	(-5,0)	(2,18)	(-43,0)	(-1,1)	(14,0)	(21,1)	(-2,0)	(22,1)	(3,0)	(-3,0)	(-48,0)	
L2C 1>	(1,210)	(21,53)	(-3,1)	(42,1)	(3,2)	(-25,1)	(-44,1)	(-2,157)	(-43,0)	(0,33)	(-1,125)	(2,1)	(43,1)	(-22,0)	(-21,0)	(-6,0)	
L2C 2>	(1,5)	(-2,214)	(-1,60)	(-42,1)	(21,1)	(-21,8)	(-43,7)	(43,1)	(-22,15)	(-20,0)	(-9,0)	(7,0)	(-15,2)	(-3,0)	(0,2)	(2,3)	
L2C 3>	(35,1)	(-1,225)	(1,16)	(-4,1)	(16,1)	(-2,23)	(-22,4)	(3,1)	(0,2)	(18,1)	(-43,2)	(4,0)	(2,0)	(-11,0)	(-3,1)	(-8,0)	
L2C 4>	(1,7)	(-2,181)	(18,3)	(-22,0)	(2,1)	(13,0)	(5,0)	(-8,0)	(3,1)	(-1,11)	(0,0)	(-4,0)	(-6,0)	(-5,0)	(-3,2)	(-18,0)	
L2C 5>	(2,13)	(0,20)	(17,148)	(-14,18)	(15,4)	(-5,13)	(1,126)	(-18,27)	(-39,25)	(4,5)	(-13,12)	(18,110)	(-1,19)	(-6,9)	(-2,1)	(6,2)	
L2C 6>	(0,41)	(1,156)	(-8,1)	(-6,173)	(14,12)	(-14,65)	(-20,25)	(-5,18)	(-2,33)	(15,47)	(-7,69)	(8,66)	(2,55)	(-1,37)	(7,51)	(-19,11)	
L2C 7>	(1,145)	(2,38)	(-1,120)	(-8,77)	(-16,18)	(-22,14)	(-5,4)	(0,75)	(7,59)	(21,9)	(-6,165)	(-14,160)	(-15,60)	(8,59)	(-29,12)	(-7,205)	
L2C 8>	(-1,177)	(2,17)	(-8,90)	(0,23)	(1,84)	(14,32)	(-22,9)	(15,1)	(6,70)	(-9,5)	(-15,7)	(-7,95)	(-6,41)	(-2,16)	(-14,41)	(7,26)	
L2C 9>	(-21,21)	(-2,179)	(1,250)	(-1,243)	(-22,55)	(-5,19)	(3,9)	(14,41)	(-8,221)	(-7,4)	(13,30)	(-4,9)	(6,37)	(5,63)	(-24,8)	(20,8)	
L2C 10>	(2,52)	(-1,122)	(-9,17)	(3,11)	(-3,19)	(-2,170)	(-17,6)	(14,6)	(-8,1)	(1,114)	(5,50)	(-6,9)	(18,6)	(-32,4)	(-14,14)	(-21,19)	
L2C 11>	(-1,12)	(1,244)	(-2,2)	(-12,2)	(9,3)	(-4,1)	(16,1)	(-6,2)	(13,2)	(-9,1)	(-19,1)	(-16,3)	(7,2)	(3,2)	(-41,1)	(4,1)	
L2C 12>	(-19,4)	(8,4)	(2,184)	(-17,2)	(-35,1)	(-14,6)	(-20,2)	(-22,2)	(3,5)	(1,27)	(-1,10)	(-6,2)	(-10,2)	(-28,2)	(10,2)	(0,5)	
L2C 13>	(-12,17)	(-7,37)	(2,27)	(1,123)	(-15,87)	(-21,25)	(4,16)	(-6,162)	(-14,162)	(-8,16)	(-20,1)	(-13,112)	(7,16)	(-2,22)	(-1,40)	(-4,52)	
L2C 14>	(1,144)	(-6,198)	(-7,78)	(-13,85)	(21,44)	(-8,60)	(-20,45)	(-15,95)	(-21,28)	(0,50)	(-14,161)	(-2,66)	(6,1)	(7,136)	(-1,97)	(-36,14)	
L2C 15>	(-16,27)	(1,104)	(-14,103)	(-15,55)	(-29,16)	(8,13)	(-22,23)	(-21,35)	(-2,37)	(-13,21)	(-1,246)	(-7,35)	(19,1)	(-36,23)	(-9,9)	(-8,91)	
L2C 16>	(1,54)	(-21,16)	(-8,49)	(-16,166)	(-15,61)	(-22,8)	(-17,10)	(-1,102)	(2,18)	(-14,15)	(-13,1)	(-2,8)	(-7,19)	(-9,9)	(0,55)	(8,6)	
L2C 17>	(-16,2)	(1,247)	(-1,5)	(-2,5)	(-21,1)	(3,4)	(37,1)	(-20,3)	(-39,1)	(-19,1)	(0,1)	(-14,3)	(2,7)	(-17,5)	(12,1)	(-23,1)	
L2C 18>	(-14,2)	(-17,185)	(19,1)	(-9,1)	(-1,3)	(-12,1)	(-6,2)	(1,8)	(11,1)	(2,3)	(24,1)	(-20,2)	(-19,2)	(4,1)	(-15,2)	(-16,14)	
L2C 19>	(-43,7)	(-19,6)	(-21,138)	(-7,1)	(1,74)	(22,59)	(0,22)	(24,6)	(-22,14)	(-1,19)	(2,12)	(-20,6)	(-18,30)	(23,33)	(-42,5)	(21,44)	
L2C 20>	(15,1)	(1,36)	(-13,1)	(-21,154)	(0,2)	(-22,1)	(-18,0)	(-42,7)	(22,1)	(-41,2)	(24,0)	(2,11)	(-14,0)	(-1,33)	(21,0)	(-19,1)	
L2C 21>	(-42,43)	(-43,155)	(22,141)	(-8,0)	(-41,1)	(1,32)	(-21,41)	(21,124)	(-22,7)	(-1,6)	(0,2)	(-20,0)	(20,1)	(-44,4)	(23,0)	(-23,0)	
L2C 22>	(-42,8)	(-43,252)	(-45,8)	(-44,11)	(-21,40)	(-5,3)	(22,73)	(21,202)	(-22,52)	(-6,1)	(1,5)	(-1,5)	(0,4)	(20,9)	(2,0)	(-46,0)	
L2C 23>	(-43,23)	(-44,39)	(-23,4)	(-18,1)	(-20,5)	(1,153)	(20,19)	(-45,17)	(-2,14)	(-22,168)	(-1,228)	(-21,92)	(21,40)	(22,102)	(-42,5)	(-24,10)	
L2C 24>	(-45,1)	(20,8)	(-2,18)	(-21,150)	(1,24)	(-1,32)	(-20,2)	(21,156)	(-44,3)	(-22,155)	(-43,22)	(22,123)	(-23,71)	(-46,9)	(19,14)	(-11,2)	
L2C 25>	(-23,61)	(-1,38)	(-44,29)	(20,74)	(22,21)	(-2,21)	(-29,1)	(1,66)	(-22,86)	(-21,129)	(0,48)	(21,36)	(-3,9)	(-25,16)	(-13,3)	(-43,5)	
L2C 26>	(-1,43)	(-4,42)	(-3,23)	(-23,31)	(1,75)	(-20,1)	(-25,9)	(4,20)	(-27,10)	(3,7)	(-5,8)	(-12,7)	(-24,20)	(-43,4)	(-13,18)	(0,6)	
L2C 27>	(6,5)	(-1,7)	(-27,6)	(1,20)	(22,1)	(3,6)	(-7,19)	(14,4)	(-14,209)	(-13,10)	(-26,5)	(-8,6)	(7,6)	(-28,12)	(15,14)	(-21,6)	
L2C 28>	(7,23)	(-1,67)	(-30,1)	(1,42)	(-7,27)	(-29,123)	(-27,18)	(-8,15)	(15,9)	(-50,172)	(2,9)	(-14,49)	(-49,19)	(-5,5)	(0,12)	(-6,73)	
L2C 29>	(-31,1)	(1,79)	(0,36)	(-14,107)	(-7,186)	(-1,79)	(-8,83)	(21,121)	(-50,173)	(-12,30)	(14,21)	(-28,168)	(7,131)	(-30,36)	(2,37)	(20,138)	
L2C 30>	(-51,31)	(1,72)	(-28,54)	(21,8)	(-7,28)	(-8,24)	(-29,170)	(-45,13)	(-34,7)	(-22,23)	(-30,9)	(-20,7)	(-1,45)	(-50,49)	(-9,8)	(-19,1)	
L2C 31>	(-30,93)	(-1,30)	(-29,70)	(-40,1)	(-24,5)	(21,6)	(1,63)	(-26,7)	(-22,6)	(-28,8)	(-32,8)	(-17,5)	(6,5)	(14,4)	(0,3)	(-51,3)	
L2C 32>	(-33,74)	(-29,6)	(-32,11)	(1,54)	(-27,37)	(-45,24)	(-28,1)	(-1,39)	(-24,9)	(-38,8)	(-22,8)	(-5,6)	(-8,3)	(-41,7)	(-30,7)	(-31,7)	
L2C 33>	(1,61)	(-34,47)	(-21,10)	(-5,11)	(-24,18)	(-6,3)	(-20,9)	(-4,1)	(5,6)	(-1,38)	(-30,5)	(-28,12)	(-35,5)	(-14,34)	(3,5)	(-12,3)	
L2C 34>	(2,15)	(1,130)	(3,16)	(-35,29)	(-27,90)	(-1,28)	(-36,32)	(-9,1)	(-56,4)	(-28,39)	(-55,12)	(-6,12)	(-57,6)	(-7,16)	(-44,6)	(-33,13)	
L2C 35>	(1,34)	(-33,6)	(2,11)	(-17,1)	(-42,5)	(-44,92)	(-55,7)	(-13,9)	(-28,107)	(-1,24)	(-43,7)	(-34,66)	(-36,219)	(-7,23)	(-5,14)	(-51,48)	
L2C 36>	(-28,68)	(-14,16)	(-45,22)	(-7,96)	(-1,42)	(-37,20)	(-57,27)	(-35,132)	(-4,1)	(1,45)	(-44,57)	(-27,51)	(-34,28)	(-33,6)	(-51,35)	(-29,54)	
L2C 37>	(0,5)	(-22,14)	(-38,57)	(-1,62)	(2,1)	(-23,7)	(-36,62)	(-33,3)	(-28,14)	(-51,41)	(-9,11)	(-8,20)	(1,38)	(-35,9)	(3,8)	(-44,52)	
L2C 38>	(-1,17)	(1,24)	(2,16)	(-2,5)	(-32,11)	(-37,30)	(-42,7)	(0,4)	(-21,9)	(-45,10)	(-11,36)	(-41,1)	(-3,5)	(-4,32)	(-40,5)	(-5,28)	
L2C 39>	(1,27)	(2,32)	(-1,34)	(17,5)	(-42,4)	(-31,8)	(0,1)	(-50,7)	(-17,3)	(-20,8)	(-41,27)	(4,3)	(3,4)	(-4,3)	(-39,23)	(-19,22)	
L2C 40>	(-1,64)	(-21,219)	(0,19)	(-42,76)	(-39,22)	(1,81)	(-50,4)	(-43,62)	(-44,9)	(2,20)	(3,50)	(-20,34)	(-27,1)	(-34,3)	(-13,4)	(-41,4)	
L2C 41>	(-22,44)	(-44,7)	(-43,32)	(-1,205)	(0,2)	(-21,61)	(1,30)	(-19,3)	(-32,0)	(2,93)	(-40,7)	(3,3)	(-39,1)	(-20,9)	(-42,6)	(-34,0)	
L2C 42>	(-43,22)	(-22,26)	(-3,0)	(-21,199)	(1,137)	(-41,3)	(-45,0)	(2,12)	(-20,3)	(-1,95)	(0,4)	(-44,1)	(-23,23)	(-40,0)	(-42,8)	(-28,0)	
L2C 43>	(-1,64)	(-22,200)	(-34,0)	(-44,8)	(-8,0)	(-21,185)	(-42,11)	(0,28)	(1,115)	(-19,0)	(-41,0)	(-23,0)	(-45,0)	(-20,0)	(-2,0)	(-43,84)	
L2C 44>	(-22,217)	(-43,78)	(3,0)	(-2,8)	(-1,83)	(1,54)	(0,11)	(-24,0)	(-16,0)	(-42,0)	(2,0)	(-21,20)	(-23,38)	(-34,0)	(-40,0)	(-3,0)	
L2C 45>	(-44,20)	(-22,237)	(-1,58)	(1,160)	(0,19)	(-21,196)	(-43,124)	(-42,48)	(-2,123)	(-39,1)	(-46,13)	(-28,2)	(-23,16)	(-24,1)	(-45,1)	(-3,13)	
L2C 46>	(-43,99)	(-3,15)	(-1,24)	(-2,30)	(-44,5)	(-11,2)	(1,5)	(-21,3)	(-22,181)	(2,1)	(-15,1)	(-14,1)	(-23,2)	(-47,3)	(-45,4)	(-10,1)	
L2C 47>	(-47,9)	(1,14)	(-19,4)	(-28,5)	(-33,16)	(3,1)	(-21,4)	(-23,9)	(-39,7)	(-3,3)	(2,4)	(-46,6)	(-11,4)	(-17,6)	(-2,4)	(-1,8)	
L2C 48>	(-49,18)	(1,21)	(-54,6)	(-47,6)	(-42,3)	(-17,3)	(-1,1)	(-50,10)	(-28,4)	(-48,11)	(-52,6)	(-60,1)	(-30,3)	(-7,21)	(-18,68)	(2,6)	
L2C 49>	(1,12)	(-7,218)	(-43,4)	(-50,6)	(-48,3)	(-53,1)	(-46,3)	(-13,4)	(7,1)	(-49,7)	(-1,9)	(-51,2)	(-21,1)	(-8,11)	(-29,3)	(-28,19)	
L2C 50>	(1,26)	(-52,39)	(-7,227)	(-1,124)	(-28,101)	(-49,101)	(-6,50)	(-29,89)	(-8,101)	(-35,71)	(-23,23)	(-21,33)	(-13,1)	(-51,97)	(-36,36)	(-14,23)	
L2C 51>	(-1,156)	(-51,66)	(-43,6)	(-53,9)	(-35,10)	(-44,32)	(0,7)	(-8,6)	(-29,11)	(-57,5)	(-52,44)	(-50,14)	(-7,69)	(-46,1)	(-28,15)	(-55,11)	
L2C 52>	(-28,9)	(1,18)	(0,2)	(-1,55)	(-13,2)	(-50,4)	(-53,11)	(-8,15)	(-59,2)	(-7,15)	(-4,1)	(-51,23)	(-44,5)	(-18,1)	(-19,2)	(-20,2)	
L2C 53>	(-52,7)	(1,12)	(-16,2)	(-28,2)	(-20,1)	(-1,51)	(-3,2)	(-30,1)	(-2,2)	(-53,26)	(2,4)	(-11,1)	(-29,3)	(-51,17)	(-34,1)	(-48,1)	
L2C 54>	(-51,3)	(-28,2)	(-29,2)	(-49,3)	(-54,3)	(1,9)	(-12,1)	(-1,14)	(-52,3)	(2,2)	(-35,1)	(-32,1)	(-7,1)	(-34,2)	(-45,3)	(-53,3)	
L2C 55>	(-50,3)	(1,6)	(-35,4)	(-53,7)	(0,28)	(-28,1)	(-47,1)	(-55,5)	(-1,52)	(-3,2)	(-54,20)	(-57,4)	(-36,4)	(-34,6)	(-49,4)	(-51,2)	
L2C 56>	(-1,1)	(1,7)	(-55,2)	(0,1)	(-35,1)	(-60,1)	(-24,2)	(-6,1)	(-58,2)	(-57,1)	(-7,1)	(-34,1)	(-16,1)	(-43,1)	(-51,1)	(-23,1)	
L2C 57>	(1,6)	(-22,3)	(-44,2)	(-49,2)	(-38,1)	(-1,2)	(-34,2)	(-12,1)	(-57,1)	(-51,1)	(-46,1)	(-14,1)	(1,0)	(1,0)	(1,0)	(1,0)	
L2C 58>	(1,3)	(-14,5)	(0,5)	(3,2)	(-44,8)	(-26,2)	(-57,5)	(-54,1)	(-51,6)	(-36,15)	(2,1)	(-2,1)	(-10,1)	(-49,2)	(-34,1)	(-55,1)	
L2C 59>	(-31,1)	(-28,3)	(-45,1)	(-58,1)	(-3,1)	(-36,1)	(3,1)	(1,1)	(-56,1)	(-49,1)	(-57,1)	(1,0)	(1,0)	(1,0)	(1,0)	(1,0)	
L2C 60>	(-29,2)	(-59,2)	(1,3)	(1,0)	(1,0)	(1,0)	(1,0)	(1,0)	(1,0)	(1,0)	(1,0)	(1,0)	(1,0)	(1,0)	(1,0)	(1,0)	
L2C 61>	(0,1)	(-43,1)	(-50,1)	(-59,1)	(-62,2)	(1,1)	(-8,1)	(-3,1)	(-29,1)	(-12,1)	(1,0)	(1,0)	(1,0)	(1,0)	(1,0)	(1,0)	
L2C 62>	(-58,1)	(-43,3)	(-50,1)	(-55,2)	(-51,1)	(-6,1)	(1,0)	(1,0)	(1,0)	(1,0)	(1,0)	(1,0)	(1,0)	(1,0)	(1,0)	(1,0)	
L2C 63>	(-44,15)	(-22,134)	(-21,174)	(-1,10)	(-41,2)	(-43,11)	(1,0)	(1,0)	(1,0)	(1,0)	(1,0)	(1,0)	(1,0)	(1,0)	(1,0)	(1,0)	

DRAM Statistics
 CHANNEL 0
 RQ ROW_BUFFER_HIT:     331795  ROW_BUFFER_MISS:    1087616
 DBUS_CONGESTED:    1278391
 WQ ROW_BUFFER_HIT:      59668  ROW_BUFFER_MISS:     702266  FULL:        105

 AVG_CONGESTED_CYCLE: 6
