Initialize SIGNATURE TABLE
ST_SET: 1
ST_WAY: 256
ST_TAG_BIT: 16
ST_TAG_MASK: ffff

Initialize PATTERN TABLE
PT_SET: 512
PT_WAY: 4
SIG_DELTA_BIT: 7
C_SIG_BIT: 4
C_DELTA_BIT: 4

Initialize PREFETCH FILTER
FILTER_SET: 1024

*** ChampSim Multicore Out-of-Order Simulator ***

Warmup Instructions: 1000000
Simulation Instructions: 10000000
Number of CPUs: 4
LLC sets: 8192
LLC ways: 16
Off-chip DRAM Size: 4096 MB Channels: 1 Width: 64-bit Data Rate: 3200 MT/s

CPU 0 runs /home/virtualcse/Data-Prefetching/ChampSim/dpc3_traces/600.perlbench_s-1273B.champsimtrace.xz
CPU 1 runs /home/virtualcse/Data-Prefetching/ChampSim/dpc3_traces/603.bwaves_s-1080B.champsimtrace.xz
CPU 2 runs /home/virtualcse/Data-Prefetching/ChampSim/dpc3_traces/620.omnetpp_s-141B.champsimtrace.xz
CPU 3 runs /home/virtualcse/Data-Prefetching/ChampSim/dpc3_traces/641.leela_s-334B.champsimtrace.xz

Warmup complete CPU 0 instructions: 1395561 cycles: 538979 (Simulation time: 0 hr 0 min 8 sec) 
Warmup complete CPU 1 instructions: 1555965 cycles: 538979 (Simulation time: 0 hr 0 min 8 sec) 
Warmup complete CPU 2 instructions: 1000001 cycles: 538979 (Simulation time: 0 hr 0 min 8 sec) 
Warmup complete CPU 3 instructions: 1217436 cycles: 538978 (Simulation time: 0 hr 0 min 8 sec) 

Heartbeat CPU 1 instructions: 10000001 cycles: 4606013 heartbeat IPC: 2.17108 cumulative IPC: 2.07621 (Simulation time: 0 hr 0 min 37 sec) 
Finished CPU 1 instructions: 10000002 cycles: 4835747 cumulative IPC: 2.06793 (Simulation time: 0 hr 0 min 43 sec) 
Heartbeat CPU 0 instructions: 10000000 cycles: 5682244 heartbeat IPC: 1.75987 cumulative IPC: 1.67295 (Simulation time: 0 hr 0 min 46 sec) 
Finished CPU 0 instructions: 10000001 cycles: 5977376 cumulative IPC: 1.67298 (Simulation time: 0 hr 0 min 52 sec) 
Heartbeat CPU 1 instructions: 20000003 cycles: 9457205 heartbeat IPC: 2.06135 cumulative IPC: 2.06813 (Simulation time: 0 hr 1 min 12 sec) 
Heartbeat CPU 3 instructions: 10000002 cycles: 10216889 heartbeat IPC: 0.978772 cumulative IPC: 0.907486 (Simulation time: 0 hr 1 min 17 sec) 
Finished CPU 3 instructions: 10000003 cycles: 11017958 cumulative IPC: 0.907609 (Simulation time: 0 hr 1 min 26 sec) 
Heartbeat CPU 0 instructions: 20000000 cycles: 12010198 heartbeat IPC: 1.58029 cumulative IPC: 1.62184 (Simulation time: 0 hr 1 min 28 sec) 
Heartbeat CPU 1 instructions: 30000001 cycles: 14068869 heartbeat IPC: 2.16841 cumulative IPC: 2.10231 (Simulation time: 0 hr 1 min 43 sec) 
Heartbeat CPU 0 instructions: 30000002 cycles: 17025872 heartbeat IPC: 1.99375 cumulative IPC: 1.73498 (Simulation time: 0 hr 2 min 3 sec) 
Heartbeat CPU 1 instructions: 40000003 cycles: 18684978 heartbeat IPC: 2.16633 cumulative IPC: 2.1186 (Simulation time: 0 hr 2 min 15 sec) 
Heartbeat CPU 3 instructions: 20000001 cycles: 21251436 heartbeat IPC: 0.906245 cumulative IPC: 0.906825 (Simulation time: 0 hr 2 min 31 sec) 
Heartbeat CPU 0 instructions: 40000002 cycles: 23102532 heartbeat IPC: 1.64564 cumulative IPC: 1.71092 (Simulation time: 0 hr 2 min 43 sec) 
Heartbeat CPU 1 instructions: 50000003 cycles: 23316664 heartbeat IPC: 2.15904 cumulative IPC: 2.12682 (Simulation time: 0 hr 2 min 44 sec) 
Heartbeat CPU 2 instructions: 10000000 cycles: 24021960 heartbeat IPC: 0.416286 cumulative IPC: 0.383256 (Simulation time: 0 hr 2 min 49 sec) 
Finished CPU 2 instructions: 10000000 cycles: 26069557 cumulative IPC: 0.383589 (Simulation time: 0 hr 3 min 5 sec) 

CPU 0 Branch Prediction Accuracy: 98.5138% MPKI: 1.84803 Average ROB Occupancy at Mispredict: 93.1151

CPU 1 Branch Prediction Accuracy: 92.5519% MPKI: 9.73142 Average ROB Occupancy at Mispredict: 84.117

CPU 2 Branch Prediction Accuracy: 96.1891% MPKI: 5.6957 Average ROB Occupancy at Mispredict: 85.573

CPU 3 Branch Prediction Accuracy: 86.148% MPKI: 15.9499 Average ROB Occupancy at Mispredict: 30.7353

ChampSim completed all CPUs

Total Simulation Statistics (not including warmup)

CPU 0 cumulative IPC: 1.69762 instructions: 44256268 cycles: 26069557
L1D TOTAL     ACCESS:   16073479  HIT:   16070996  MISS:       2483
L1D LOAD      ACCESS:    6504426  HIT:    6502031  MISS:       2395
L1D RFO       ACCESS:    9569053  HIT:    9568965  MISS:         88
L1D PREFETCH  ACCESS:          0  HIT:          0  MISS:          0
L1D WRITEBACK ACCESS:          0  HIT:          0  MISS:          0
L1I TOTAL     ACCESS:    5174585  HIT:    5173248  MISS:       1337
L1I LOAD      ACCESS:    5174585  HIT:    5173248  MISS:       1337
L1I RFO       ACCESS:          0  HIT:          0  MISS:          0
L1I PREFETCH  ACCESS:          0  HIT:          0  MISS:          0
L1I WRITEBACK ACCESS:          0  HIT:          0  MISS:          0
L2C TOTAL     ACCESS:       4698  HIT:       1999  MISS:       2699
L2C LOAD      ACCESS:       3732  HIT:       1111  MISS:       2621
L2C RFO       ACCESS:         88  HIT:         10  MISS:         78
L2C PREFETCH  ACCESS:        627  HIT:        627  MISS:          0
L2C WRITEBACK ACCESS:        251  HIT:        251  MISS:          0
LLC TOTAL     ACCESS:       3781  HIT:        520  MISS:       3261
LLC LOAD      ACCESS:       2621  HIT:        311  MISS:       2310
LLC RFO       ACCESS:         78  HIT:          0  MISS:         78
LLC PREFETCH  ACCESS:       1079  HIT:        209  MISS:        870
LLC WRITEBACK ACCESS:          3  HIT:          0  MISS:          3

CPU 1 cumulative IPC: 2.12455 instructions: 55386023 cycles: 26069557
L1D TOTAL     ACCESS:    8135042  HIT:    8061636  MISS:      73406
L1D LOAD      ACCESS:    5644361  HIT:    5637324  MISS:       7037
L1D RFO       ACCESS:    2490681  HIT:    2424312  MISS:      66369
L1D PREFETCH  ACCESS:          0  HIT:          0  MISS:          0
L1D WRITEBACK ACCESS:          0  HIT:          0  MISS:          0
L1I TOTAL     ACCESS:    1624635  HIT:    1624631  MISS:          4
L1I LOAD      ACCESS:    1624635  HIT:    1624631  MISS:          4
L1I RFO       ACCESS:          0  HIT:          0  MISS:          0
L1I PREFETCH  ACCESS:          0  HIT:          0  MISS:          0
L1I WRITEBACK ACCESS:          0  HIT:          0  MISS:          0
L2C TOTAL     ACCESS:     142945  HIT:      70011  MISS:      72934
L2C LOAD      ACCESS:       7041  HIT:       3564  MISS:       3477
L2C RFO       ACCESS:      66369  HIT:         93  MISS:      66276
L2C PREFETCH  ACCESS:       3223  HIT:         42  MISS:       3181
L2C WRITEBACK ACCESS:      66312  HIT:      66312  MISS:          0
LLC TOTAL     ACCESS:     151841  HIT:      78890  MISS:      72951
LLC LOAD      ACCESS:       3477  HIT:       3323  MISS:        154
LLC RFO       ACCESS:      66276  HIT:         61  MISS:      66215
LLC PREFETCH  ACCESS:      22671  HIT:      16175  MISS:       6496
LLC WRITEBACK ACCESS:      59417  HIT:      59331  MISS:         86

CPU 2 cumulative IPC: 0.383589 instructions: 10000000 cycles: 26069557
L1D TOTAL     ACCESS:    4027702  HIT:    3846076  MISS:     181626
L1D LOAD      ACCESS:    2269866  HIT:    2110689  MISS:     159177
L1D RFO       ACCESS:    1757836  HIT:    1735387  MISS:      22449
L1D PREFETCH  ACCESS:          0  HIT:          0  MISS:          0
L1D WRITEBACK ACCESS:          0  HIT:          0  MISS:          0
L1I TOTAL     ACCESS:    1095295  HIT:    1089124  MISS:       6171
L1I LOAD      ACCESS:    1095295  HIT:    1089124  MISS:       6171
L1I RFO       ACCESS:          0  HIT:          0  MISS:          0
L1I PREFETCH  ACCESS:          0  HIT:          0  MISS:          0
L1I WRITEBACK ACCESS:          0  HIT:          0  MISS:          0
L2C TOTAL     ACCESS:     291294  HIT:     157848  MISS:     133446
L2C LOAD      ACCESS:     165345  HIT:      49492  MISS:     115853
L2C RFO       ACCESS:      22449  HIT:       5256  MISS:      17193
L2C PREFETCH  ACCESS:      12916  HIT:      12634  MISS:        282
L2C WRITEBACK ACCESS:      90584  HIT:      90466  MISS:        118
LLC TOTAL     ACCESS:     250049  HIT:     127000  MISS:     123049
LLC LOAD      ACCESS:     115851  HIT:      40677  MISS:      75174
LLC RFO       ACCESS:      17193  HIT:       6748  MISS:      10445
LLC PREFETCH  ACCESS:      50797  HIT:      13451  MISS:      37346
LLC WRITEBACK ACCESS:      66208  HIT:      66124  MISS:         84

CPU 3 cumulative IPC: 0.909693 instructions: 23715305 cycles: 26069558
L1D TOTAL     ACCESS:    7156138  HIT:    7121266  MISS:      34872
L1D LOAD      ACCESS:    4347742  HIT:    4320530  MISS:      27212
L1D RFO       ACCESS:    2808396  HIT:    2800736  MISS:       7660
L1D PREFETCH  ACCESS:          0  HIT:          0  MISS:          0
L1D WRITEBACK ACCESS:          0  HIT:          0  MISS:          0
L1I TOTAL     ACCESS:    2282397  HIT:    2274271  MISS:       8126
L1I LOAD      ACCESS:    2282397  HIT:    2274271  MISS:       8126
L1I RFO       ACCESS:          0  HIT:          0  MISS:          0
L1I PREFETCH  ACCESS:          0  HIT:          0  MISS:          0
L1I WRITEBACK ACCESS:          0  HIT:          0  MISS:          0
L2C TOTAL     ACCESS:      69762  HIT:      68393  MISS:       1369
L2C LOAD      ACCESS:      35337  HIT:      34103  MISS:       1234
L2C RFO       ACCESS:       7657  HIT:       7562  MISS:         95
L2C PREFETCH  ACCESS:      14036  HIT:      13996  MISS:         40
L2C WRITEBACK ACCESS:      12732  HIT:      12732  MISS:          0
LLC TOTAL     ACCESS:       5615  HIT:       3344  MISS:       2271
LLC LOAD      ACCESS:       1223  HIT:        249  MISS:        974
LLC RFO       ACCESS:         95  HIT:         10  MISS:         85
LLC PREFETCH  ACCESS:       4296  HIT:       3085  MISS:       1211
LLC WRITEBACK ACCESS:          1  HIT:          0  MISS:          1

Region of Interest Statistics

CPU 0 cumulative IPC: 1.67298 instructions: 10000001 cycles: 5977376
L1D TOTAL     ACCESS:    3594927  HIT:    3594299  MISS:        628
L1D LOAD      ACCESS:    1413907  HIT:    1413305  MISS:        602
L1D RFO       ACCESS:    2181020  HIT:    2180994  MISS:         26
L1D PREFETCH  ACCESS:          0  HIT:          0  MISS:          0
L1D WRITEBACK ACCESS:          0  HIT:          0  MISS:          0
L1D PREFETCH  REQUESTED:          0  ISSUED:          0  USEFUL:          0  USELESS:          0
L1D AVERAGE MISS LATENCY: 808.151 cycles
L1I TOTAL     ACCESS:    1138865  HIT:    1138489  MISS:        376
L1I LOAD      ACCESS:    1138865  HIT:    1138489  MISS:        376
L1I RFO       ACCESS:          0  HIT:          0  MISS:          0
L1I PREFETCH  ACCESS:          0  HIT:          0  MISS:          0
L1I WRITEBACK ACCESS:          0  HIT:          0  MISS:          0
L1I PREFETCH  REQUESTED:          0  ISSUED:          0  USEFUL:          0  USELESS:          0
L1I AVERAGE MISS LATENCY: 171.492 cycles
L2C TOTAL     ACCESS:       1185  HIT:        437  MISS:        748
L2C LOAD      ACCESS:        978  HIT:        255  MISS:        723
L2C RFO       ACCESS:         26  HIT:          1  MISS:         25
L2C PREFETCH  ACCESS:        154  HIT:        154  MISS:          0
L2C WRITEBACK ACCESS:         27  HIT:         27  MISS:          0
L2C PREFETCH  REQUESTED:       2310  ISSUED:       2310  USEFUL:          1  USELESS:          0
L2C AVERAGE MISS LATENCY: 683.56 cycles
LLC TOTAL     ACCESS:       1050  HIT:        130  MISS:        920
LLC LOAD      ACCESS:        723  HIT:         84  MISS:        639
LLC RFO       ACCESS:         25  HIT:          0  MISS:         25
LLC PREFETCH  ACCESS:        302  HIT:         46  MISS:        256
LLC WRITEBACK ACCESS:          0  HIT:          0  MISS:          0
LLC PREFETCH  REQUESTED:          0  ISSUED:          0  USEFUL:      18500  USELESS:      11009
LLC AVERAGE MISS LATENCY: 34424.2 cycles
Major fault: 0 Minor fault: 483

CPU 1 cumulative IPC: 2.06793 instructions: 10000002 cycles: 4835747
L1D TOTAL     ACCESS:    1750377  HIT:    1710171  MISS:      40206
L1D LOAD      ACCESS:    1097867  HIT:    1094030  MISS:       3837
L1D RFO       ACCESS:     652510  HIT:     616141  MISS:      36369
L1D PREFETCH  ACCESS:          0  HIT:          0  MISS:          0
L1D WRITEBACK ACCESS:          0  HIT:          0  MISS:          0
L1D PREFETCH  REQUESTED:          0  ISSUED:          0  USEFUL:          0  USELESS:          0
L1D AVERAGE MISS LATENCY: 313.781 cycles
L1I TOTAL     ACCESS:     622073  HIT:     622071  MISS:          2
L1I LOAD      ACCESS:     622073  HIT:     622071  MISS:          2
L1I RFO       ACCESS:          0  HIT:          0  MISS:          0
L1I PREFETCH  ACCESS:          0  HIT:          0  MISS:          0
L1I WRITEBACK ACCESS:          0  HIT:          0  MISS:          0
L1I PREFETCH  REQUESTED:          0  ISSUED:          0  USEFUL:          0  USELESS:          0
L1I AVERAGE MISS LATENCY: 442 cycles
L2C TOTAL     ACCESS:      78374  HIT:      38366  MISS:      40008
L2C LOAD      ACCESS:       3839  HIT:       2058  MISS:       1781
L2C RFO       ACCESS:      36369  HIT:          2  MISS:      36367
L2C PREFETCH  ACCESS:       1878  HIT:         18  MISS:       1860
L2C WRITEBACK ACCESS:      36288  HIT:      36288  MISS:          0
L2C PREFETCH  REQUESTED:      23285  ISSUED:      23285  USEFUL:       3199  USELESS:          2
L2C AVERAGE MISS LATENCY: 289.735 cycles
LLC TOTAL     ACCESS:      80932  HIT:      40921  MISS:      40011
LLC LOAD      ACCESS:       1781  HIT:       1709  MISS:         72
LLC RFO       ACCESS:      36367  HIT:          0  MISS:      36367
LLC PREFETCH  ACCESS:      13253  HIT:       9681  MISS:       3572
LLC WRITEBACK ACCESS:      29531  HIT:      29531  MISS:          0
LLC PREFETCH  REQUESTED:          0  ISSUED:          0  USEFUL:      18500  USELESS:      11009
LLC AVERAGE MISS LATENCY: 791.54 cycles
Major fault: 0 Minor fault: 1179

CPU 2 cumulative IPC: 0.383589 instructions: 10000000 cycles: 26069557
L1D TOTAL     ACCESS:    4027702  HIT:    3846076  MISS:     181626
L1D LOAD      ACCESS:    2269866  HIT:    2110689  MISS:     159177
L1D RFO       ACCESS:    1757836  HIT:    1735387  MISS:      22449
L1D PREFETCH  ACCESS:          0  HIT:          0  MISS:          0
L1D WRITEBACK ACCESS:          0  HIT:          0  MISS:          0
L1D PREFETCH  REQUESTED:          0  ISSUED:          0  USEFUL:          0  USELESS:          0
L1D AVERAGE MISS LATENCY: 123.157 cycles
L1I TOTAL     ACCESS:    1095295  HIT:    1089124  MISS:       6171
L1I LOAD      ACCESS:    1095295  HIT:    1089124  MISS:       6171
L1I RFO       ACCESS:          0  HIT:          0  MISS:          0
L1I PREFETCH  ACCESS:          0  HIT:          0  MISS:          0
L1I WRITEBACK ACCESS:          0  HIT:          0  MISS:          0
L1I PREFETCH  REQUESTED:          0  ISSUED:          0  USEFUL:          0  USELESS:          0
L1I AVERAGE MISS LATENCY: 21.7414 cycles
L2C TOTAL     ACCESS:     291294  HIT:     157848  MISS:     133446
L2C LOAD      ACCESS:     165345  HIT:      49492  MISS:     115853
L2C RFO       ACCESS:      22449  HIT:       5256  MISS:      17193
L2C PREFETCH  ACCESS:      12916  HIT:      12634  MISS:        282
L2C WRITEBACK ACCESS:      90584  HIT:      90466  MISS:        118
L2C PREFETCH  REQUESTED:      87339  ISSUED:      87339  USEFUL:         76  USELESS:        212
L2C AVERAGE MISS LATENCY: 138.16 cycles
LLC TOTAL     ACCESS:     250049  HIT:     127000  MISS:     123049
LLC LOAD      ACCESS:     115851  HIT:      40677  MISS:      75174
LLC RFO       ACCESS:      17193  HIT:       6748  MISS:      10445
LLC PREFETCH  ACCESS:      50797  HIT:      13451  MISS:      37346
LLC WRITEBACK ACCESS:      66208  HIT:      66124  MISS:         84
LLC PREFETCH  REQUESTED:          0  ISSUED:          0  USEFUL:      18500  USELESS:      11009
LLC AVERAGE MISS LATENCY: 257.379 cycles
Major fault: 0 Minor fault: 23836

CPU 3 cumulative IPC: 0.907609 instructions: 10000003 cycles: 11017958
L1D TOTAL     ACCESS:    3016205  HIT:    3002650  MISS:      13555
L1D LOAD      ACCESS:    1831166  HIT:    1820693  MISS:      10473
L1D RFO       ACCESS:    1185039  HIT:    1181957  MISS:       3082
L1D PREFETCH  ACCESS:          0  HIT:          0  MISS:          0
L1D WRITEBACK ACCESS:          0  HIT:          0  MISS:          0
L1D PREFETCH  REQUESTED:          0  ISSUED:          0  USEFUL:          0  USELESS:          0
L1D AVERAGE MISS LATENCY: 54.9792 cycles
L1I TOTAL     ACCESS:     960544  HIT:     957207  MISS:       3337
L1I LOAD      ACCESS:     960544  HIT:     957207  MISS:       3337
L1I RFO       ACCESS:          0  HIT:          0  MISS:          0
L1I PREFETCH  ACCESS:          0  HIT:          0  MISS:          0
L1I WRITEBACK ACCESS:          0  HIT:          0  MISS:          0
L1I PREFETCH  REQUESTED:          0  ISSUED:          0  USEFUL:          0  USELESS:          0
L1I AVERAGE MISS LATENCY: 32.4504 cycles
L2C TOTAL     ACCESS:      26980  HIT:      26100  MISS:        880
L2C LOAD      ACCESS:      13810  HIT:      13031  MISS:        779
L2C RFO       ACCESS:       3079  HIT:       3004  MISS:         75
L2C PREFETCH  ACCESS:       5162  HIT:       5136  MISS:         26
L2C WRITEBACK ACCESS:       4929  HIT:       4929  MISS:          0
L2C PREFETCH  REQUESTED:      19928  ISSUED:      19928  USEFUL:         66  USELESS:          0
L2C AVERAGE MISS LATENCY: 258.247 cycles
LLC TOTAL     ACCESS:       2880  HIT:       1460  MISS:       1420
LLC LOAD      ACCESS:        777  HIT:        139  MISS:        638
LLC RFO       ACCESS:         75  HIT:          8  MISS:         67
LLC PREFETCH  ACCESS:       2028  HIT:       1313  MISS:        715
LLC WRITEBACK ACCESS:          0  HIT:          0  MISS:          0
LLC PREFETCH  REQUESTED:          0  ISSUED:          0  USEFUL:      18500  USELESS:      11009
LLC AVERAGE MISS LATENCY: 22303 cycles
Major fault: 0 Minor fault: 413

DRAM Statistics
 CHANNEL 0
 RQ ROW_BUFFER_HIT:      59326  ROW_BUFFER_MISS:     142029
 DBUS_CONGESTED:      62530
 WQ ROW_BUFFER_HIT:      10272  ROW_BUFFER_MISS:      44968  FULL:          0

 AVG_CONGESTED_CYCLE: 6
