
*** ChampSim Multicore Out-of-Order Simulator ***

Warmup Instructions: 1000000
Simulation Instructions: 10000000
Number of CPUs: 4
LLC sets: 8192
LLC ways: 16
Off-chip DRAM Size: 4096 MB Channels: 1 Width: 64-bit Data Rate: 3200 MT/s

CPU 0 runs /home/virtualcse/Data-Prefetching/ChampSim/dpc3_traces/623.xalancbmk_s-202B.champsimtrace.xz
CPU 1 runs /home/virtualcse/Data-Prefetching/ChampSim/dpc3_traces/619.lbm_s-3766B.champsimtrace.xz
CPU 2 runs /home/virtualcse/Data-Prefetching/ChampSim/dpc3_traces/649.fotonik3d_s-8225B.champsimtrace.xz
CPU 3 runs /home/virtualcse/Data-Prefetching/ChampSim/dpc3_traces/603.bwaves_s-1080B.champsimtrace.xz
Ultra pref. initializing...
Ultra pref. initialized
Ultra pref. initializing...
Ultra pref. initialized
Ultra pref. initializing...
Ultra pref. initialized
Ultra pref. initializing...
Ultra pref. initialized
Ultra pref. initializing...
Ultra pref. initialized
Ultra pref. initializing...
Ultra pref. initialized
Ultra pref. initializing...
Ultra pref. initialized
Ultra pref. initializing...
Ultra pref. initialized

Warmup complete CPU 0 instructions: 1145961 cycles: 404629 (Simulation time: 0 hr 0 min 9 sec) 
Warmup complete CPU 1 instructions: 1253519 cycles: 404629 (Simulation time: 0 hr 0 min 9 sec) 
Warmup complete CPU 2 instructions: 1000001 cycles: 404629 (Simulation time: 0 hr 0 min 9 sec) 
Warmup complete CPU 3 instructions: 1183508 cycles: 404628 (Simulation time: 0 hr 0 min 9 sec) 

Heartbeat CPU 3 instructions: 10000001 cycles: 5338592 heartbeat IPC: 1.87315 cumulative IPC: 1.7869 (Simulation time: 0 hr 0 min 43 sec) 
Finished CPU 3 instructions: 10000002 cycles: 5769608 cumulative IPC: 1.73322 (Simulation time: 0 hr 0 min 48 sec) 
Heartbeat CPU 3 instructions: 20000003 cycles: 11322962 heartbeat IPC: 1.67102 cumulative IPC: 1.72339 (Simulation time: 0 hr 1 min 18 sec) 
Heartbeat CPU 1 instructions: 10000001 cycles: 13011096 heartbeat IPC: 0.768575 cumulative IPC: 0.693809 (Simulation time: 0 hr 1 min 28 sec) 
Finished CPU 1 instructions: 10000003 cycles: 14317004 cumulative IPC: 0.69847 (Simulation time: 0 hr 1 min 39 sec) 
Heartbeat CPU 2 instructions: 10000003 cycles: 15896064 heartbeat IPC: 0.629087 cumulative IPC: 0.580966 (Simulation time: 0 hr 1 min 46 sec) 
Heartbeat CPU 3 instructions: 30000001 cycles: 15934834 heartbeat IPC: 2.16832 cumulative IPC: 1.85551 (Simulation time: 0 hr 1 min 47 sec) 
Finished CPU 2 instructions: 10000000 cycles: 17081667 cumulative IPC: 0.585423 (Simulation time: 0 hr 1 min 56 sec) 
Heartbeat CPU 3 instructions: 40000003 cycles: 20551397 heartbeat IPC: 2.16611 cumulative IPC: 1.92669 (Simulation time: 0 hr 2 min 16 sec) 
Heartbeat CPU 3 instructions: 50000003 cycles: 25245198 heartbeat IPC: 2.13047 cumulative IPC: 1.96519 (Simulation time: 0 hr 2 min 45 sec) 
Heartbeat CPU 1 instructions: 20000000 cycles: 27307621 heartbeat IPC: 0.699471 cumulative IPC: 0.696818 (Simulation time: 0 hr 2 min 58 sec) 
Heartbeat CPU 3 instructions: 60000000 cycles: 29981064 heartbeat IPC: 2.11155 cumulative IPC: 1.98863 (Simulation time: 0 hr 3 min 14 sec) 
Heartbeat CPU 2 instructions: 20000000 cycles: 32389503 heartbeat IPC: 0.606301 cumulative IPC: 0.594031 (Simulation time: 0 hr 3 min 29 sec) 
Heartbeat CPU 3 instructions: 70000003 cycles: 34705674 heartbeat IPC: 2.11658 cumulative IPC: 2.00625 (Simulation time: 0 hr 3 min 43 sec) 
Heartbeat CPU 3 instructions: 80000002 cycles: 39434311 heartbeat IPC: 2.11477 cumulative IPC: 2.0194 (Simulation time: 0 hr 4 min 11 sec) 
Heartbeat CPU 1 instructions: 30000001 cycles: 42383765 heartbeat IPC: 0.6633 cumulative IPC: 0.68478 (Simulation time: 0 hr 4 min 29 sec) 
Heartbeat CPU 0 instructions: 10000003 cycles: 42823027 heartbeat IPC: 0.233519 cumulative IPC: 0.208731 (Simulation time: 0 hr 4 min 32 sec) 
Heartbeat CPU 3 instructions: 90000001 cycles: 44192750 heartbeat IPC: 2.10153 cumulative IPC: 2.02832 (Simulation time: 0 hr 4 min 40 sec) 
Finished CPU 0 instructions: 10000003 cycles: 48186460 cumulative IPC: 0.207527 (Simulation time: 0 hr 5 min 7 sec) 

CPU 0 Branch Prediction Accuracy: 99.9815% MPKI: 0.0473095 Average ROB Occupancy at Mispredict: 129.998

CPU 1 Branch Prediction Accuracy: 99.8983% MPKI: 0.0108048 Average ROB Occupancy at Mispredict: 339.253

CPU 2 Branch Prediction Accuracy: 99.975% MPKI: 0.00439009 Average ROB Occupancy at Mispredict: 344.832

CPU 3 Branch Prediction Accuracy: 92.1586% MPKI: 10.7046 Average ROB Occupancy at Mispredict: 84.0378

ChampSim completed all CPUs

Total Simulation Statistics (not including warmup)

CPU 0 cumulative IPC: 0.207527 instructions: 10000003 cycles: 48186460
L1D TOTAL     ACCESS:    2071805  HIT:    1813408  MISS:     258397
L1D LOAD      ACCESS:    1419518  HIT:    1195069  MISS:     224449
L1D RFO       ACCESS:     177762  HIT:     177762  MISS:          0
L1D PREFETCH  ACCESS:     474525  HIT:     440577  MISS:      33948
L1D WRITEBACK ACCESS:          0  HIT:          0  MISS:          0
L1I TOTAL     ACCESS:     488727  HIT:     488722  MISS:          5
L1I LOAD      ACCESS:     488727  HIT:     488722  MISS:          5
L1I RFO       ACCESS:          0  HIT:          0  MISS:          0
L1I PREFETCH  ACCESS:          0  HIT:          0  MISS:          0
L1I WRITEBACK ACCESS:          0  HIT:          0  MISS:          0
L2C TOTAL     ACCESS:     595272  HIT:     322599  MISS:     272673
L2C LOAD      ACCESS:     207502  HIT:     108501  MISS:      99001
L2C RFO       ACCESS:          0  HIT:          0  MISS:          0
L2C PREFETCH  ACCESS:     387765  HIT:     214097  MISS:     173668
L2C WRITEBACK ACCESS:          5  HIT:          1  MISS:          4

L1D -512>	(-1,53)	(4,24)	(1,27)	(-8,37)	(12,33)	(3,105)	(0,1)	(2,118)	(-9,53)	(13,10)	(6,91)	(-17,42)	(-5,52)	(-13,21)	(7,40)	(5,28)	
L1D -511>	(1,88)	(0,49)	(6,28)	(3,31)	(2,109)	(4,5)	(7,1)	(8,3)	(1,0)	(1,0)	(1,0)	(1,0)	(1,0)	(1,0)	(1,0)	(1,0)	
L1D -510>	(1,25)	(0,32)	(7,0)	(12,0)	(2,89)	(6,0)	(4,12)	(3,5)	(11,1)	(1,0)	(1,0)	(1,0)	(1,0)	(1,0)	(1,0)	(1,0)	
L1D -509>	(1,1)	(12,1)	(6,103)	(11,0)	(4,0)	(125,0)	(3,0)	(0,0)	(2,0)	(1,0)	(1,0)	(1,0)	(1,0)	(1,0)	(1,0)	(1,0)	
L1D -508>	(2,67)	(0,19)	(1,26)	(3,7)	(12,5)	(11,44)	(6,1)	(1,0)	(1,0)	(1,0)	(1,0)	(1,0)	(1,0)	(1,0)	(1,0)	(1,0)	
L1D -507>	(13,14)	(0,1)	(2,2)	(50,1)	(6,1)	(12,9)	(1,0)	(1,0)	(1,0)	(1,0)	(1,0)	(1,0)	(1,0)	(1,0)	(1,0)	(1,0)	
L1D -506>	(13,69)	(0,0)	(-5,0)	(3,2)	(5,1)	(12,0)	(6,1)	(2,0)	(1,0)	(1,0)	(1,0)	(1,0)	(1,0)	(1,0)	(1,0)	(1,0)	
L1D -505>	(2,1)	(0,2)	(13,8)	(12,10)	(8,5)	(1,0)	(1,0)	(1,0)	(1,0)	(1,0)	(1,0)	(1,0)	(1,0)	(1,0)	(1,0)	(1,0)	
L1D -504>	(1,2)	(0,4)	(1,0)	(1,0)	(1,0)	(1,0)	(1,0)	(1,0)	(1,0)	(1,0)	(1,0)	(1,0)	(1,0)	(1,0)	(1,0)	(1,0)	
L1D -503>	(-8,16)	(6,100)	(0,13)	(3,1)	(2,23)	(1,4)	(1,0)	(1,0)	(1,0)	(1,0)	(1,0)	(1,0)	(1,0)	(1,0)	(1,0)	(1,0)	
L1D -502>	(-9,2)	(50,1)	(3,1)	(-8,1)	(2,1)	(1,0)	(1,0)	(1,0)	(1,0)	(1,0)	(1,0)	(1,0)	(1,0)	(1,0)	(1,0)	(1,0)	
L1D -501>	(-8,8)	(6,1)	(1,0)	(1,0)	(1,0)	(1,0)	(1,0)	(1,0)	(1,0)	(1,0)	(1,0)	(1,0)	(1,0)	(1,0)	(1,0)	(1,0)	
L1D -500>	(6,11)	(1,1)	(-9,1)	(13,2)	(1,0)	(1,0)	(1,0)	(1,0)	(1,0)	(1,0)	(1,0)	(1,0)	(1,0)	(1,0)	(1,0)	(1,0)	
L1D -499>	(-8,18)	(13,96)	(6,11)	(2,12)	(5,2)	(1,0)	(1,0)	(1,0)	(1,0)	(1,0)	(1,0)	(1,0)	(1,0)	(1,0)	(1,0)	(1,0)	
L1D -498>	(6,4)	(-6,1)	(50,1)	(-13,1)	(-8,6)	(13,1)	(2,1)	(-5,2)	(1,0)	(1,0)	(1,0)	(1,0)	(1,0)	(1,0)	(1,0)	(1,0)	
L1D -497>	(12,97)	(-13,0)	(-12,0)	(11,0)	(6,8)	(-8,42)	(0,0)	(1,0)	(1,0)	(1,0)	(1,0)	(1,0)	(1,0)	(1,0)	(1,0)	(1,0)	
L1D -496>	(175,1)	(6,3)	(-1,1)	(-8,1)	(0,2)	(1,0)	(1,0)	(1,0)	(1,0)	(1,0)	(1,0)	(1,0)	(1,0)	(1,0)	(1,0)	(1,0)	
L1D -495>	(2,1)	(1,0)	(1,0)	(1,0)	(1,0)	(1,0)	(1,0)	(1,0)	(1,0)	(1,0)	(1,0)	(1,0)	(1,0)	(1,0)	(1,0)	(1,0)	
L1D -494>	(-17,1)	(2,1)	(6,1)	(0,1)	(-9,1)	(1,0)	(1,0)	(1,0)	(1,0)	(1,0)	(1,0)	(1,0)	(1,0)	(1,0)	(1,0)	(1,0)	
L1D -493>	(-17,2)	(6,12)	(1,0)	(1,0)	(1,0)	(1,0)	(1,0)	(1,0)	(1,0)	(1,0)	(1,0)	(1,0)	(1,0)	(1,0)	(1,0)	(1,0)	
L1D -492>	(25,1)	(6,1)	(13,3)	(1,0)	(1,0)	(1,0)	(1,0)	(1,0)	(1,0)	(1,0)	(1,0)	(1,0)	(1,0)	(1,0)	(1,0)	(1,0)	
L1D -491>	(-9,1)	(-8,1)	(0,1)	(1,0)	(1,0)	(1,0)	(1,0)	(1,0)	(1,0)	(1,0)	(1,0)	(1,0)	(1,0)	(1,0)	(1,0)	(1,0)	
L1D -490>	(50,1)	(1,0)	(1,0)	(1,0)	(1,0)	(1,0)	(1,0)	(1,0)	(1,0)	(1,0)	(1,0)	(1,0)	(1,0)	(1,0)	(1,0)	(1,0)	
L1D -489>	(13,6)	(1,0)	(1,0)	(1,0)	(1,0)	(1,0)	(1,0)	(1,0)	(1,0)	(1,0)	(1,0)	(1,0)	(1,0)	(1,0)	(1,0)	(1,0)	
L1D -488>	(12,1)	(1,0)	(1,0)	(1,0)	(1,0)	(1,0)	(1,0)	(1,0)	(1,0)	(1,0)	(1,0)	(1,0)	(1,0)	(1,0)	(1,0)	(1,0)	
L1D -487>	(13,1)	(0,2)	(2,1)	(1,0)	(1,0)	(1,0)	(1,0)	(1,0)	(1,0)	(1,0)	(1,0)	(1,0)	(1,0)	(1,0)	(1,0)	(1,0)	
L1D -486>	(50,1)	(2,4)	(1,0)	(1,0)	(1,0)	(1,0)	(1,0)	(1,0)	(1,0)	(1,0)	(1,0)	(1,0)	(1,0)	(1,0)	(1,0)	(1,0)	
L1D -485>	(75,1)	(13,16)	(2,1)	(1,0)	(1,0)	(1,0)	(1,0)	(1,0)	(1,0)	(1,0)	(1,0)	(1,0)	(1,0)	(1,0)	(1,0)	(1,0)	
L1D -484>	(2,1)	(1,0)	(1,0)	(1,0)	(1,0)	(1,0)	(1,0)	(1,0)	(1,0)	(1,0)	(1,0)	(1,0)	(1,0)	(1,0)	(1,0)	(1,0)	
L1D -483>	(1,6)	(-5,1)	(-8,1)	(1,0)	(1,0)	(1,0)	(1,0)	(1,0)	(1,0)	(1,0)	(1,0)	(1,0)	(1,0)	(1,0)	(1,0)	(1,0)	
L1D -482>	(13,1)	(6,3)	(1,0)	(1,0)	(1,0)	(1,0)	(1,0)	(1,0)	(1,0)	(1,0)	(1,0)	(1,0)	(1,0)	(1,0)	(1,0)	(1,0)	
L1D -481>	(50,1)	(1,0)	(1,0)	(1,0)	(1,0)	(1,0)	(1,0)	(1,0)	(1,0)	(1,0)	(1,0)	(1,0)	(1,0)	(1,0)	(1,0)	(1,0)	
L1D -480>	(1,0)	(1,0)	(1,0)	(1,0)	(1,0)	(1,0)	(1,0)	(1,0)	(1,0)	(1,0)	(1,0)	(1,0)	(1,0)	(1,0)	(1,0)	(1,0)	
L1D -479>	(1,0)	(1,0)	(1,0)	(1,0)	(1,0)	(1,0)	(1,0)	(1,0)	(1,0)	(1,0)	(1,0)	(1,0)	(1,0)	(1,0)	(1,0)	(1,0)	
L1D -478>	(1,0)	(1,0)	(1,0)	(1,0)	(1,0)	(1,0)	(1,0)	(1,0)	(1,0)	(1,0)	(1,0)	(1,0)	(1,0)	(1,0)	(1,0)	(1,0)	
L1D -477>	(1,0)	(1,0)	(1,0)	(1,0)	(1,0)	(1,0)	(1,0)	(1,0)	(1,0)	(1,0)	(1,0)	(1,0)	(1,0)	(1,0)	(1,0)	(1,0)	
L1D -476>	(-9,1)	(1,0)	(1,0)	(1,0)	(1,0)	(1,0)	(1,0)	(1,0)	(1,0)	(1,0)	(1,0)	(1,0)	(1,0)	(1,0)	(1,0)	(1,0)	
L1D -475>	(1,0)	(1,0)	(1,0)	(1,0)	(1,0)	(1,0)	(1,0)	(1,0)	(1,0)	(1,0)	(1,0)	(1,0)	(1,0)	(1,0)	(1,0)	(1,0)	
L1D -474>	(1,0)	(1,0)	(1,0)	(1,0)	(1,0)	(1,0)	(1,0)	(1,0)	(1,0)	(1,0)	(1,0)	(1,0)	(1,0)	(1,0)	(1,0)	(1,0)	
L1D -473>	(1,0)	(1,0)	(1,0)	(1,0)	(1,0)	(1,0)	(1,0)	(1,0)	(1,0)	(1,0)	(1,0)	(1,0)	(1,0)	(1,0)	(1,0)	(1,0)	
L1D -472>	(1,0)	(1,0)	(1,0)	(1,0)	(1,0)	(1,0)	(1,0)	(1,0)	(1,0)	(1,0)	(1,0)	(1,0)	(1,0)	(1,0)	(1,0)	(1,0)	
L1D -471>	(1,0)	(1,0)	(1,0)	(1,0)	(1,0)	(1,0)	(1,0)	(1,0)	(1,0)	(1,0)	(1,0)	(1,0)	(1,0)	(1,0)	(1,0)	(1,0)	
L1D -470>	(50,1)	(2,1)	(0,1)	(1,0)	(1,0)	(1,0)	(1,0)	(1,0)	(1,0)	(1,0)	(1,0)	(1,0)	(1,0)	(1,0)	(1,0)	(1,0)	
L1D -469>	(125,1)	(100,1)	(1,0)	(1,0)	(1,0)	(1,0)	(1,0)	(1,0)	(1,0)	(1,0)	(1,0)	(1,0)	(1,0)	(1,0)	(1,0)	(1,0)	
L1D -468>	(470,1)	(1,0)	(1,0)	(1,0)	(1,0)	(1,0)	(1,0)	(1,0)	(1,0)	(1,0)	(1,0)	(1,0)	(1,0)	(1,0)	(1,0)	(1,0)	
L1D -467>	(75,1)	(-8,1)	(1,0)	(1,0)	(1,0)	(1,0)	(1,0)	(1,0)	(1,0)	(1,0)	(1,0)	(1,0)	(1,0)	(1,0)	(1,0)	(1,0)	
L1D -466>	(1,0)	(1,0)	(1,0)	(1,0)	(1,0)	(1,0)	(1,0)	(1,0)	(1,0)	(1,0)	(1,0)	(1,0)	(1,0)	(1,0)	(1,0)	(1,0)	
L1D -465>	(2,1)	(1,0)	(1,0)	(1,0)	(1,0)	(1,0)	(1,0)	(1,0)	(1,0)	(1,0)	(1,0)	(1,0)	(1,0)	(1,0)	(1,0)	(1,0)	
L1D -464>	(125,1)	(1,0)	(1,0)	(1,0)	(1,0)	(1,0)	(1,0)	(1,0)	(1,0)	(1,0)	(1,0)	(1,0)	(1,0)	(1,0)	(1,0)	(1,0)	
L1D -463>	(1,1)	(1,0)	(1,0)	(1,0)	(1,0)	(1,0)	(1,0)	(1,0)	(1,0)	(1,0)	(1,0)	(1,0)	(1,0)	(1,0)	(1,0)	(1,0)	
L1D -462>	(1,0)	(1,0)	(1,0)	(1,0)	(1,0)	(1,0)	(1,0)	(1,0)	(1,0)	(1,0)	(1,0)	(1,0)	(1,0)	(1,0)	(1,0)	(1,0)	
L1D -461>	(-8,1)	(1,0)	(1,0)	(1,0)	(1,0)	(1,0)	(1,0)	(1,0)	(1,0)	(1,0)	(1,0)	(1,0)	(1,0)	(1,0)	(1,0)	(1,0)	
L1D -460>	(1,0)	(1,0)	(1,0)	(1,0)	(1,0)	(1,0)	(1,0)	(1,0)	(1,0)	(1,0)	(1,0)	(1,0)	(1,0)	(1,0)	(1,0)	(1,0)	
L1D -459>	(1,0)	(1,0)	(1,0)	(1,0)	(1,0)	(1,0)	(1,0)	(1,0)	(1,0)	(1,0)	(1,0)	(1,0)	(1,0)	(1,0)	(1,0)	(1,0)	
L1D -458>	(1,0)	(1,0)	(1,0)	(1,0)	(1,0)	(1,0)	(1,0)	(1,0)	(1,0)	(1,0)	(1,0)	(1,0)	(1,0)	(1,0)	(1,0)	(1,0)	
L1D -457>	(1,0)	(1,0)	(1,0)	(1,0)	(1,0)	(1,0)	(1,0)	(1,0)	(1,0)	(1,0)	(1,0)	(1,0)	(1,0)	(1,0)	(1,0)	(1,0)	
L1D -456>	(1,0)	(1,0)	(1,0)	(1,0)	(1,0)	(1,0)	(1,0)	(1,0)	(1,0)	(1,0)	(1,0)	(1,0)	(1,0)	(1,0)	(1,0)	(1,0)	
L1D -455>	(2,1)	(1,0)	(1,0)	(1,0)	(1,0)	(1,0)	(1,0)	(1,0)	(1,0)	(1,0)	(1,0)	(1,0)	(1,0)	(1,0)	(1,0)	(1,0)	
L1D -454>	(1,0)	(1,0)	(1,0)	(1,0)	(1,0)	(1,0)	(1,0)	(1,0)	(1,0)	(1,0)	(1,0)	(1,0)	(1,0)	(1,0)	(1,0)	(1,0)	
L1D -453>	(1,0)	(1,0)	(1,0)	(1,0)	(1,0)	(1,0)	(1,0)	(1,0)	(1,0)	(1,0)	(1,0)	(1,0)	(1,0)	(1,0)	(1,0)	(1,0)	
L1D -452>	(1,0)	(1,0)	(1,0)	(1,0)	(1,0)	(1,0)	(1,0)	(1,0)	(1,0)	(1,0)	(1,0)	(1,0)	(1,0)	(1,0)	(1,0)	(1,0)	
L1D -451>	(1,0)	(1,0)	(1,0)	(1,0)	(1,0)	(1,0)	(1,0)	(1,0)	(1,0)	(1,0)	(1,0)	(1,0)	(1,0)	(1,0)	(1,0)	(1,0)	
L1D -450>	(1,0)	(1,0)	(1,0)	(1,0)	(1,0)	(1,0)	(1,0)	(1,0)	(1,0)	(1,0)	(1,0)	(1,0)	(1,0)	(1,0)	(1,0)	(1,0)	
L1D -449>	(2,1)	(1,0)	(1,0)	(1,0)	(1,0)	(1,0)	(1,0)	(1,0)	(1,0)	(1,0)	(1,0)	(1,0)	(1,0)	(1,0)	(1,0)	(1,0)	
L1D -448>	(1,0)	(1,0)	(1,0)	(1,0)	(1,0)	(1,0)	(1,0)	(1,0)	(1,0)	(1,0)	(1,0)	(1,0)	(1,0)	(1,0)	(1,0)	(1,0)	
L1D -447>	(1,0)	(1,0)	(1,0)	(1,0)	(1,0)	(1,0)	(1,0)	(1,0)	(1,0)	(1,0)	(1,0)	(1,0)	(1,0)	(1,0)	(1,0)	(1,0)	
L1D -446>	(13,1)	(1,0)	(1,0)	(1,0)	(1,0)	(1,0)	(1,0)	(1,0)	(1,0)	(1,0)	(1,0)	(1,0)	(1,0)	(1,0)	(1,0)	(1,0)	
L1D -445>	(1,0)	(1,0)	(1,0)	(1,0)	(1,0)	(1,0)	(1,0)	(1,0)	(1,0)	(1,0)	(1,0)	(1,0)	(1,0)	(1,0)	(1,0)	(1,0)	
L1D -444>	(50,1)	(1,0)	(1,0)	(1,0)	(1,0)	(1,0)	(1,0)	(1,0)	(1,0)	(1,0)	(1,0)	(1,0)	(1,0)	(1,0)	(1,0)	(1,0)	
L1D -443>	(1,0)	(1,0)	(1,0)	(1,0)	(1,0)	(1,0)	(1,0)	(1,0)	(1,0)	(1,0)	(1,0)	(1,0)	(1,0)	(1,0)	(1,0)	(1,0)	
L1D -442>	(1,0)	(1,0)	(1,0)	(1,0)	(1,0)	(1,0)	(1,0)	(1,0)	(1,0)	(1,0)	(1,0)	(1,0)	(1,0)	(1,0)	(1,0)	(1,0)	
L1D -441>	(1,0)	(1,0)	(1,0)	(1,0)	(1,0)	(1,0)	(1,0)	(1,0)	(1,0)	(1,0)	(1,0)	(1,0)	(1,0)	(1,0)	(1,0)	(1,0)	
L1D -440>	(2,1)	(1,0)	(1,0)	(1,0)	(1,0)	(1,0)	(1,0)	(1,0)	(1,0)	(1,0)	(1,0)	(1,0)	(1,0)	(1,0)	(1,0)	(1,0)	
L1D -439>	(1,0)	(1,0)	(1,0)	(1,0)	(1,0)	(1,0)	(1,0)	(1,0)	(1,0)	(1,0)	(1,0)	(1,0)	(1,0)	(1,0)	(1,0)	(1,0)	
L1D -438>	(1,0)	(1,0)	(1,0)	(1,0)	(1,0)	(1,0)	(1,0)	(1,0)	(1,0)	(1,0)	(1,0)	(1,0)	(1,0)	(1,0)	(1,0)	(1,0)	
L1D -437>	(1,0)	(1,0)	(1,0)	(1,0)	(1,0)	(1,0)	(1,0)	(1,0)	(1,0)	(1,0)	(1,0)	(1,0)	(1,0)	(1,0)	(1,0)	(1,0)	
L1D -436>	(1,0)	(1,0)	(1,0)	(1,0)	(1,0)	(1,0)	(1,0)	(1,0)	(1,0)	(1,0)	(1,0)	(1,0)	(1,0)	(1,0)	(1,0)	(1,0)	
L1D -435>	(50,1)	(1,0)	(1,0)	(1,0)	(1,0)	(1,0)	(1,0)	(1,0)	(1,0)	(1,0)	(1,0)	(1,0)	(1,0)	(1,0)	(1,0)	(1,0)	
L1D -434>	(1,0)	(1,0)	(1,0)	(1,0)	(1,0)	(1,0)	(1,0)	(1,0)	(1,0)	(1,0)	(1,0)	(1,0)	(1,0)	(1,0)	(1,0)	(1,0)	
L1D -433>	(1,0)	(1,0)	(1,0)	(1,0)	(1,0)	(1,0)	(1,0)	(1,0)	(1,0)	(1,0)	(1,0)	(1,0)	(1,0)	(1,0)	(1,0)	(1,0)	
L1D -432>	(1,0)	(1,0)	(1,0)	(1,0)	(1,0)	(1,0)	(1,0)	(1,0)	(1,0)	(1,0)	(1,0)	(1,0)	(1,0)	(1,0)	(1,0)	(1,0)	
L1D -431>	(75,1)	(1,0)	(1,0)	(1,0)	(1,0)	(1,0)	(1,0)	(1,0)	(1,0)	(1,0)	(1,0)	(1,0)	(1,0)	(1,0)	(1,0)	(1,0)	
L1D -430>	(1,0)	(1,0)	(1,0)	(1,0)	(1,0)	(1,0)	(1,0)	(1,0)	(1,0)	(1,0)	(1,0)	(1,0)	(1,0)	(1,0)	(1,0)	(1,0)	
L1D -429>	(1,0)	(1,0)	(1,0)	(1,0)	(1,0)	(1,0)	(1,0)	(1,0)	(1,0)	(1,0)	(1,0)	(1,0)	(1,0)	(1,0)	(1,0)	(1,0)	
L1D -428>	(1,0)	(1,0)	(1,0)	(1,0)	(1,0)	(1,0)	(1,0)	(1,0)	(1,0)	(1,0)	(1,0)	(1,0)	(1,0)	(1,0)	(1,0)	(1,0)	
L1D -427>	(1,0)	(1,0)	(1,0)	(1,0)	(1,0)	(1,0)	(1,0)	(1,0)	(1,0)	(1,0)	(1,0)	(1,0)	(1,0)	(1,0)	(1,0)	(1,0)	
L1D -426>	(1,0)	(1,0)	(1,0)	(1,0)	(1,0)	(1,0)	(1,0)	(1,0)	(1,0)	(1,0)	(1,0)	(1,0)	(1,0)	(1,0)	(1,0)	(1,0)	
L1D -425>	(1,0)	(1,0)	(1,0)	(1,0)	(1,0)	(1,0)	(1,0)	(1,0)	(1,0)	(1,0)	(1,0)	(1,0)	(1,0)	(1,0)	(1,0)	(1,0)	
L1D -424>	(1,0)	(1,0)	(1,0)	(1,0)	(1,0)	(1,0)	(1,0)	(1,0)	(1,0)	(1,0)	(1,0)	(1,0)	(1,0)	(1,0)	(1,0)	(1,0)	
L1D -423>	(12,1)	(1,0)	(1,0)	(1,0)	(1,0)	(1,0)	(1,0)	(1,0)	(1,0)	(1,0)	(1,0)	(1,0)	(1,0)	(1,0)	(1,0)	(1,0)	
L1D -422>	(25,1)	(1,0)	(1,0)	(1,0)	(1,0)	(1,0)	(1,0)	(1,0)	(1,0)	(1,0)	(1,0)	(1,0)	(1,0)	(1,0)	(1,0)	(1,0)	
L1D -421>	(1,0)	(1,0)	(1,0)	(1,0)	(1,0)	(1,0)	(1,0)	(1,0)	(1,0)	(1,0)	(1,0)	(1,0)	(1,0)	(1,0)	(1,0)	(1,0)	
L1D -420>	(2,1)	(1,0)	(1,0)	(1,0)	(1,0)	(1,0)	(1,0)	(1,0)	(1,0)	(1,0)	(1,0)	(1,0)	(1,0)	(1,0)	(1,0)	(1,0)	
L1D -419>	(1,0)	(1,0)	(1,0)	(1,0)	(1,0)	(1,0)	(1,0)	(1,0)	(1,0)	(1,0)	(1,0)	(1,0)	(1,0)	(1,0)	(1,0)	(1,0)	
L1D -418>	(1,0)	(1,0)	(1,0)	(1,0)	(1,0)	(1,0)	(1,0)	(1,0)	(1,0)	(1,0)	(1,0)	(1,0)	(1,0)	(1,0)	(1,0)	(1,0)	
L1D -417>	(1,0)	(1,0)	(1,0)	(1,0)	(1,0)	(1,0)	(1,0)	(1,0)	(1,0)	(1,0)	(1,0)	(1,0)	(1,0)	(1,0)	(1,0)	(1,0)	
L1D -416>	(2,1)	(1,0)	(1,0)	(1,0)	(1,0)	(1,0)	(1,0)	(1,0)	(1,0)	(1,0)	(1,0)	(1,0)	(1,0)	(1,0)	(1,0)	(1,0)	
L1D -415>	(2,1)	(1,0)	(1,0)	(1,0)	(1,0)	(1,0)	(1,0)	(1,0)	(1,0)	(1,0)	(1,0)	(1,0)	(1,0)	(1,0)	(1,0)	(1,0)	
L1D -414>	(1,0)	(1,0)	(1,0)	(1,0)	(1,0)	(1,0)	(1,0)	(1,0)	(1,0)	(1,0)	(1,0)	(1,0)	(1,0)	(1,0)	(1,0)	(1,0)	
L1D -413>	(25,1)	(1,0)	(1,0)	(1,0)	(1,0)	(1,0)	(1,0)	(1,0)	(1,0)	(1,0)	(1,0)	(1,0)	(1,0)	(1,0)	(1,0)	(1,0)	
L1D -412>	(414,1)	(1,0)	(1,0)	(1,0)	(1,0)	(1,0)	(1,0)	(1,0)	(1,0)	(1,0)	(1,0)	(1,0)	(1,0)	(1,0)	(1,0)	(1,0)	
L1D -411>	(1,0)	(1,0)	(1,0)	(1,0)	(1,0)	(1,0)	(1,0)	(1,0)	(1,0)	(1,0)	(1,0)	(1,0)	(1,0)	(1,0)	(1,0)	(1,0)	
L1D -410>	(1,0)	(1,0)	(1,0)	(1,0)	(1,0)	(1,0)	(1,0)	(1,0)	(1,0)	(1,0)	(1,0)	(1,0)	(1,0)	(1,0)	(1,0)	(1,0)	
L1D -409>	(2,1)	(1,0)	(1,0)	(1,0)	(1,0)	(1,0)	(1,0)	(1,0)	(1,0)	(1,0)	(1,0)	(1,0)	(1,0)	(1,0)	(1,0)	(1,0)	
L1D -408>	(1,0)	(1,0)	(1,0)	(1,0)	(1,0)	(1,0)	(1,0)	(1,0)	(1,0)	(1,0)	(1,0)	(1,0)	(1,0)	(1,0)	(1,0)	(1,0)	
L1D -407>	(1,0)	(1,0)	(1,0)	(1,0)	(1,0)	(1,0)	(1,0)	(1,0)	(1,0)	(1,0)	(1,0)	(1,0)	(1,0)	(1,0)	(1,0)	(1,0)	
L1D -406>	(1,0)	(1,0)	(1,0)	(1,0)	(1,0)	(1,0)	(1,0)	(1,0)	(1,0)	(1,0)	(1,0)	(1,0)	(1,0)	(1,0)	(1,0)	(1,0)	
L1D -405>	(1,0)	(1,0)	(1,0)	(1,0)	(1,0)	(1,0)	(1,0)	(1,0)	(1,0)	(1,0)	(1,0)	(1,0)	(1,0)	(1,0)	(1,0)	(1,0)	
L1D -404>	(1,0)	(1,0)	(1,0)	(1,0)	(1,0)	(1,0)	(1,0)	(1,0)	(1,0)	(1,0)	(1,0)	(1,0)	(1,0)	(1,0)	(1,0)	(1,0)	
L1D -403>	(1,0)	(1,0)	(1,0)	(1,0)	(1,0)	(1,0)	(1,0)	(1,0)	(1,0)	(1,0)	(1,0)	(1,0)	(1,0)	(1,0)	(1,0)	(1,0)	
L1D -402>	(1,0)	(1,0)	(1,0)	(1,0)	(1,0)	(1,0)	(1,0)	(1,0)	(1,0)	(1,0)	(1,0)	(1,0)	(1,0)	(1,0)	(1,0)	(1,0)	
L1D -401>	(1,0)	(1,0)	(1,0)	(1,0)	(1,0)	(1,0)	(1,0)	(1,0)	(1,0)	(1,0)	(1,0)	(1,0)	(1,0)	(1,0)	(1,0)	(1,0)	
L1D -400>	(2,1)	(1,0)	(1,0)	(1,0)	(1,0)	(1,0)	(1,0)	(1,0)	(1,0)	(1,0)	(1,0)	(1,0)	(1,0)	(1,0)	(1,0)	(1,0)	
L1D -399>	(2,2)	(1,0)	(1,0)	(1,0)	(1,0)	(1,0)	(1,0)	(1,0)	(1,0)	(1,0)	(1,0)	(1,0)	(1,0)	(1,0)	(1,0)	(1,0)	
L1D -398>	(1,10)	(2,30)	(0,9)	(4,4)	(3,3)	(1,0)	(1,0)	(1,0)	(1,0)	(1,0)	(1,0)	(1,0)	(1,0)	(1,0)	(1,0)	(1,0)	
L1D -397>	(2,1)	(1,1)	(1,0)	(1,0)	(1,0)	(1,0)	(1,0)	(1,0)	(1,0)	(1,0)	(1,0)	(1,0)	(1,0)	(1,0)	(1,0)	(1,0)	
L1D -396>	(3,1)	(2,2)	(1,0)	(1,0)	(1,0)	(1,0)	(1,0)	(1,0)	(1,0)	(1,0)	(1,0)	(1,0)	(1,0)	(1,0)	(1,0)	(1,0)	
L1D -395>	(1,0)	(1,0)	(1,0)	(1,0)	(1,0)	(1,0)	(1,0)	(1,0)	(1,0)	(1,0)	(1,0)	(1,0)	(1,0)	(1,0)	(1,0)	(1,0)	
L1D -394>	(1,0)	(1,0)	(1,0)	(1,0)	(1,0)	(1,0)	(1,0)	(1,0)	(1,0)	(1,0)	(1,0)	(1,0)	(1,0)	(1,0)	(1,0)	(1,0)	
L1D -393>	(1,0)	(1,0)	(1,0)	(1,0)	(1,0)	(1,0)	(1,0)	(1,0)	(1,0)	(1,0)	(1,0)	(1,0)	(1,0)	(1,0)	(1,0)	(1,0)	
L1D -392>	(1,0)	(1,0)	(1,0)	(1,0)	(1,0)	(1,0)	(1,0)	(1,0)	(1,0)	(1,0)	(1,0)	(1,0)	(1,0)	(1,0)	(1,0)	(1,0)	
L1D -391>	(1,0)	(1,0)	(1,0)	(1,0)	(1,0)	(1,0)	(1,0)	(1,0)	(1,0)	(1,0)	(1,0)	(1,0)	(1,0)	(1,0)	(1,0)	(1,0)	
L1D -390>	(2,1)	(1,0)	(1,0)	(1,0)	(1,0)	(1,0)	(1,0)	(1,0)	(1,0)	(1,0)	(1,0)	(1,0)	(1,0)	(1,0)	(1,0)	(1,0)	
L1D -389>	(1,0)	(1,0)	(1,0)	(1,0)	(1,0)	(1,0)	(1,0)	(1,0)	(1,0)	(1,0)	(1,0)	(1,0)	(1,0)	(1,0)	(1,0)	(1,0)	
L1D -388>	(1,0)	(1,0)	(1,0)	(1,0)	(1,0)	(1,0)	(1,0)	(1,0)	(1,0)	(1,0)	(1,0)	(1,0)	(1,0)	(1,0)	(1,0)	(1,0)	
L1D -387>	(1,0)	(1,0)	(1,0)	(1,0)	(1,0)	(1,0)	(1,0)	(1,0)	(1,0)	(1,0)	(1,0)	(1,0)	(1,0)	(1,0)	(1,0)	(1,0)	
L1D -386>	(1,0)	(1,0)	(1,0)	(1,0)	(1,0)	(1,0)	(1,0)	(1,0)	(1,0)	(1,0)	(1,0)	(1,0)	(1,0)	(1,0)	(1,0)	(1,0)	
L1D -385>	(2,1)	(1,0)	(1,0)	(1,0)	(1,0)	(1,0)	(1,0)	(1,0)	(1,0)	(1,0)	(1,0)	(1,0)	(1,0)	(1,0)	(1,0)	(1,0)	
L1D -384>	(1,0)	(1,0)	(1,0)	(1,0)	(1,0)	(1,0)	(1,0)	(1,0)	(1,0)	(1,0)	(1,0)	(1,0)	(1,0)	(1,0)	(1,0)	(1,0)	
L1D -383>	(1,0)	(1,0)	(1,0)	(1,0)	(1,0)	(1,0)	(1,0)	(1,0)	(1,0)	(1,0)	(1,0)	(1,0)	(1,0)	(1,0)	(1,0)	(1,0)	
L1D -382>	(1,0)	(1,0)	(1,0)	(1,0)	(1,0)	(1,0)	(1,0)	(1,0)	(1,0)	(1,0)	(1,0)	(1,0)	(1,0)	(1,0)	(1,0)	(1,0)	
L1D -381>	(1,0)	(1,0)	(1,0)	(1,0)	(1,0)	(1,0)	(1,0)	(1,0)	(1,0)	(1,0)	(1,0)	(1,0)	(1,0)	(1,0)	(1,0)	(1,0)	
L1D -380>	(1,0)	(1,0)	(1,0)	(1,0)	(1,0)	(1,0)	(1,0)	(1,0)	(1,0)	(1,0)	(1,0)	(1,0)	(1,0)	(1,0)	(1,0)	(1,0)	
L1D -379>	(1,0)	(1,0)	(1,0)	(1,0)	(1,0)	(1,0)	(1,0)	(1,0)	(1,0)	(1,0)	(1,0)	(1,0)	(1,0)	(1,0)	(1,0)	(1,0)	
L1D -378>	(1,0)	(1,0)	(1,0)	(1,0)	(1,0)	(1,0)	(1,0)	(1,0)	(1,0)	(1,0)	(1,0)	(1,0)	(1,0)	(1,0)	(1,0)	(1,0)	
L1D -377>	(1,0)	(1,0)	(1,0)	(1,0)	(1,0)	(1,0)	(1,0)	(1,0)	(1,0)	(1,0)	(1,0)	(1,0)	(1,0)	(1,0)	(1,0)	(1,0)	
L1D -376>	(1,0)	(1,0)	(1,0)	(1,0)	(1,0)	(1,0)	(1,0)	(1,0)	(1,0)	(1,0)	(1,0)	(1,0)	(1,0)	(1,0)	(1,0)	(1,0)	
L1D -375>	(1,0)	(1,0)	(1,0)	(1,0)	(1,0)	(1,0)	(1,0)	(1,0)	(1,0)	(1,0)	(1,0)	(1,0)	(1,0)	(1,0)	(1,0)	(1,0)	
L1D -374>	(1,0)	(1,0)	(1,0)	(1,0)	(1,0)	(1,0)	(1,0)	(1,0)	(1,0)	(1,0)	(1,0)	(1,0)	(1,0)	(1,0)	(1,0)	(1,0)	
L1D -373>	(1,0)	(1,0)	(1,0)	(1,0)	(1,0)	(1,0)	(1,0)	(1,0)	(1,0)	(1,0)	(1,0)	(1,0)	(1,0)	(1,0)	(1,0)	(1,0)	
L1D -372>	(1,0)	(1,0)	(1,0)	(1,0)	(1,0)	(1,0)	(1,0)	(1,0)	(1,0)	(1,0)	(1,0)	(1,0)	(1,0)	(1,0)	(1,0)	(1,0)	
L1D -371>	(1,0)	(1,0)	(1,0)	(1,0)	(1,0)	(1,0)	(1,0)	(1,0)	(1,0)	(1,0)	(1,0)	(1,0)	(1,0)	(1,0)	(1,0)	(1,0)	
L1D -370>	(25,30)	(1,0)	(1,0)	(1,0)	(1,0)	(1,0)	(1,0)	(1,0)	(1,0)	(1,0)	(1,0)	(1,0)	(1,0)	(1,0)	(1,0)	(1,0)	
L1D -369>	(-1,1)	(1,0)	(1,0)	(1,0)	(1,0)	(1,0)	(1,0)	(1,0)	(1,0)	(1,0)	(1,0)	(1,0)	(1,0)	(1,0)	(1,0)	(1,0)	
L1D -368>	(1,0)	(1,0)	(1,0)	(1,0)	(1,0)	(1,0)	(1,0)	(1,0)	(1,0)	(1,0)	(1,0)	(1,0)	(1,0)	(1,0)	(1,0)	(1,0)	
L1D -367>	(5,3)	(22,1)	(1,0)	(1,0)	(1,0)	(1,0)	(1,0)	(1,0)	(1,0)	(1,0)	(1,0)	(1,0)	(1,0)	(1,0)	(1,0)	(1,0)	
L1D -366>	(3,6)	(5,2)	(6,2)	(78,2)	(1,0)	(1,0)	(1,0)	(1,0)	(1,0)	(1,0)	(1,0)	(1,0)	(1,0)	(1,0)	(1,0)	(1,0)	
L1D -365>	(369,2)	(362,1)	(1,0)	(1,0)	(1,0)	(1,0)	(1,0)	(1,0)	(1,0)	(1,0)	(1,0)	(1,0)	(1,0)	(1,0)	(1,0)	(1,0)	
L1D -364>	(50,9)	(52,55)	(51,44)	(363,18)	(353,1)	(49,2)	(352,1)	(-1,5)	(361,3)	(48,2)	(362,4)	(355,2)	(360,3)	(1,0)	(1,0)	(1,0)	
L1D -363>	(51,75)	(361,8)	(75,64)	(355,3)	(5,2)	(50,4)	(367,2)	(352,1)	(-1,5)	(362,2)	(343,2)	(49,2)	(360,3)	(48,1)	(52,1)	(46,1)	
L1D -362>	(50,24)	(47,2)	(52,3)	(51,5)	(27,3)	(48,1)	(-8,1)	(341,3)	(359,2)	(358,4)	(360,1)	(361,1)	(49,2)	(354,1)	(45,2)	(352,1)	
L1D -361>	(354,3)	(45,1)	(44,2)	(49,3)	(1,2)	(358,1)	(343,4)	(51,6)	(357,1)	(50,7)	(52,2)	(46,3)	(352,2)	(355,1)	(349,1)	(48,1)	
L1D -360>	(48,50)	(52,1)	(6,6)	(51,9)	(40,3)	(64,7)	(2,1)	(47,36)	(359,10)	(-1,5)	(358,6)	(36,1)	(46,1)	(357,4)	(44,6)	(45,3)	
L1D -359>	(364,2)	(347,2)	(-1,3)	(47,53)	(358,5)	(357,5)	(46,3)	(356,2)	(35,2)	(341,1)	(45,1)	(348,1)	(42,1)	(39,3)	(51,2)	(346,3)	
L1D -358>	(46,19)	(364,5)	(363,11)	(49,2)	(362,2)	(357,1)	(354,5)	(47,5)	(30,1)	(355,2)	(48,4)	(349,2)	(356,1)	(45,2)	(43,1)	(51,2)	
L1D -357>	(351,4)	(350,2)	(47,4)	(48,2)	(46,2)	(42,3)	(45,6)	(343,1)	(353,1)	(37,1)	(364,6)	(352,2)	(357,1)	(51,3)	(1,0)	(1,0)	
L1D -356>	(361,4)	(343,6)	(47,10)	(347,1)	(41,1)	(48,2)	(353,1)	(40,1)	(349,4)	(44,5)	(36,1)	(364,3)	(363,2)	(357,1)	(1,0)	(1,0)	
L1D -355>	(43,5)	(364,1)	(347,1)	(47,3)	(44,1)	(342,2)	(359,2)	(360,1)	(353,1)	(352,1)	(35,4)	(31,2)	(343,1)	(356,1)	(1,0)	(1,0)	
L1D -354>	(364,4)	(45,6)	(359,6)	(44,2)	(348,1)	(360,2)	(47,1)	(357,3)	(42,3)	(43,3)	(52,2)	(1,0)	(1,0)	(1,0)	(1,0)	(1,0)	
L1D -353>	(41,6)	(342,8)	(47,3)	(343,1)	(347,1)	(360,5)	(348,1)	(349,4)	(362,2)	(355,1)	(337,2)	(42,2)	(352,2)	(1,0)	(1,0)	(1,0)	
L1D -352>	(354,2)	(357,2)	(339,3)	(359,2)	(360,3)	(345,1)	(364,4)	(355,1)	(40,1)	(1,0)	(1,0)	(1,0)	(1,0)	(1,0)	(1,0)	(1,0)	
L1D -351>	(39,4)	(44,2)	(340,1)	(360,4)	(43,1)	(349,1)	(339,1)	(356,1)	(350,2)	(361,1)	(364,4)	(338,2)	(359,1)	(335,1)	(1,0)	(1,0)	
L1D -350>	(364,10)	(2,1)	(39,1)	(48,1)	(360,2)	(353,1)	(38,1)	(362,2)	(363,1)	(1,0)	(1,0)	(1,0)	(1,0)	(1,0)	(1,0)	(1,0)	
L1D -349>	(48,3)	(351,2)	(37,4)	(42,1)	(338,3)	(358,2)	(364,3)	(363,2)	(361,2)	(1,0)	(1,0)	(1,0)	(1,0)	(1,0)	(1,0)	(1,0)	
L1D -348>	(36,2)	(-8,4)	(360,4)	(359,1)	(351,3)	(6,1)	(50,2)	(1,0)	(1,0)	(1,0)	(1,0)	(1,0)	(1,0)	(1,0)	(1,0)	(1,0)	
L1D -347>	(364,6)	(360,4)	(332,1)	(34,1)	(334,2)	(357,1)	(35,3)	(363,3)	(1,0)	(1,0)	(1,0)	(1,0)	(1,0)	(1,0)	(1,0)	(1,0)	
L1D -346>	(364,5)	(358,2)	(360,3)	(52,1)	(349,2)	(50,2)	(348,1)	(363,1)	(1,0)	(1,0)	(1,0)	(1,0)	(1,0)	(1,0)	(1,0)	(1,0)	
L1D -345>	(-47,26)	(22,6)	(23,16)	(-2,1)	(-22,1)	(2,1)	(-45,1)	(360,1)	(44,3)	(3,4)	(357,1)	(33,1)	(34,2)	(359,1)	(1,0)	(1,0)	
L1D -344>	(363,4)	(360,2)	(347,2)	(46,2)	(33,2)	(346,2)	(34,1)	(32,1)	(364,1)	(1,0)	(1,0)	(1,0)	(1,0)	(1,0)	(1,0)	(1,0)	
L1D -343>	(364,2)	(358,1)	(359,1)	(360,2)	(31,1)	(361,1)	(1,0)	(1,0)	(1,0)	(1,0)	(1,0)	(1,0)	(1,0)	(1,0)	(1,0)	(1,0)	
L1D -342>	(360,3)	(30,7)	(46,1)	(344,1)	(345,4)	(364,2)	(1,0)	(1,0)	(1,0)	(1,0)	(1,0)	(1,0)	(1,0)	(1,0)	(1,0)	(1,0)	
L1D -341>	(364,3)	(360,2)	(30,3)	(45,1)	(39,1)	(338,2)	(3,1)	(1,0)	(1,0)	(1,0)	(1,0)	(1,0)	(1,0)	(1,0)	(1,0)	(1,0)	
L1D -340>	(-1,4)	(357,1)	(359,1)	(334,1)	(28,1)	(360,2)	(29,1)	(339,2)	(27,1)	(337,3)	(39,1)	(364,4)	(342,2)	(23,2)	(1,0)	(1,0)	
L1D -339>	(27,14)	(338,15)	(26,26)	(22,2)	(360,5)	(-1,9)	(25,2)	(23,5)	(357,2)	(336,6)	(46,1)	(364,3)	(337,3)	(21,1)	(24,1)	(342,1)	
L1D -338>	(74,3)	(337,6)	(26,13)	(25,7)	(335,3)	(23,6)	(360,2)	(364,2)	(-1,1)	(24,1)	(1,0)	(1,0)	(1,0)	(1,0)	(1,0)	(1,0)	
L1D -337>	(26,13)	(336,2)	(27,2)	(100,1)	(25,9)	(24,7)	(-23,1)	(-27,2)	(1,0)	(1,0)	(1,0)	(1,0)	(1,0)	(1,0)	(1,0)	(1,0)	
L1D -336>	(338,18)	(25,4)	(24,31)	(-28,5)	(335,3)	(360,4)	(313,5)	(26,4)	(364,3)	(-1,1)	(20,2)	(1,0)	(1,0)	(1,0)	(1,0)	(1,0)	
L1D -335>	(23,11)	(313,7)	(334,10)	(2,1)	(315,1)	(34,1)	(360,2)	(26,1)	(339,1)	(-25,1)	(1,0)	(1,0)	(1,0)	(1,0)	(1,0)	(1,0)	
L1D -334>	(22,7)	(313,7)	(360,2)	(23,1)	(336,2)	(27,1)	(332,1)	(338,6)	(1,0)	(1,0)	(1,0)	(1,0)	(1,0)	(1,0)	(1,0)	(1,0)	
L1D -333>	(313,5)	(332,5)	(21,10)	(1,0)	(1,0)	(1,0)	(1,0)	(1,0)	(1,0)	(1,0)	(1,0)	(1,0)	(1,0)	(1,0)	(1,0)	(1,0)	
L1D -332>	(20,12)	(313,12)	(314,4)	(22,3)	(1,0)	(1,0)	(1,0)	(1,0)	(1,0)	(1,0)	(1,0)	(1,0)	(1,0)	(1,0)	(1,0)	(1,0)	
L1D -331>	(19,13)	(330,3)	(313,4)	(1,0)	(1,0)	(1,0)	(1,0)	(1,0)	(1,0)	(1,0)	(1,0)	(1,0)	(1,0)	(1,0)	(1,0)	(1,0)	
L1D -330>	(18,8)	(15,3)	(21,1)	(329,1)	(-27,1)	(-29,1)	(313,3)	(314,1)	(1,0)	(1,0)	(1,0)	(1,0)	(1,0)	(1,0)	(1,0)	(1,0)	
L1D -329>	(14,1)	(2,1)	(15,1)	(17,12)	(313,8)	(328,2)	(18,1)	(312,1)	(315,3)	(-28,1)	(1,0)	(1,0)	(1,0)	(1,0)	(1,0)	(1,0)	
L1D -328>	(313,17)	(312,1)	(16,17)	(13,1)	(326,3)	(-29,1)	(15,3)	(1,0)	(1,0)	(1,0)	(1,0)	(1,0)	(1,0)	(1,0)	(1,0)	(1,0)	
L1D -327>	(313,9)	(325,4)	(14,3)	(15,9)	(16,2)	(13,1)	(0,1)	(1,0)	(1,0)	(1,0)	(1,0)	(1,0)	(1,0)	(1,0)	(1,0)	(1,0)	
L1D -326>	(313,20)	(324,5)	(16,5)	(60,1)	(12,6)	(13,3)	(14,3)	(321,1)	(322,1)	(1,0)	(1,0)	(1,0)	(1,0)	(1,0)	(1,0)	(1,0)	
L1D -325>	(58,2)	(13,120)	(-15,6)	(-14,25)	(60,6)	(313,7)	(322,1)	(12,2)	(15,1)	(1,0)	(1,0)	(1,0)	(1,0)	(1,0)	(1,0)	(1,0)	
L1D -324>	(12,4)	(15,2)	(323,6)	(313,15)	(-21,6)	(-1,4)	(58,2)	(60,2)	(337,1)	(10,4)	(320,1)	(322,3)	(1,0)	(1,0)	(1,0)	(1,0)	
L1D -323>	(313,11)	(-69,1)	(11,15)	(13,4)	(10,3)	(-34,1)	(322,1)	(12,3)	(-38,2)	(1,0)	(1,0)	(1,0)	(1,0)	(1,0)	(1,0)	(1,0)	
L1D -322>	(313,13)	(326,5)	(146,6)	(-23,2)	(10,21)	(332,2)	(12,1)	(1,0)	(1,0)	(1,0)	(1,0)	(1,0)	(1,0)	(1,0)	(1,0)	(1,0)	
L1D -321>	(10,2)	(9,5)	(313,3)	(316,1)	(-41,2)	(1,0)	(1,0)	(1,0)	(1,0)	(1,0)	(1,0)	(1,0)	(1,0)	(1,0)	(1,0)	(1,0)	
L1D -320>	(-40,1)	(8,8)	(313,3)	(-37,1)	(-39,2)	(3,1)	(-43,2)	(318,1)	(1,0)	(1,0)	(1,0)	(1,0)	(1,0)	(1,0)	(1,0)	(1,0)	
L1D -319>	(318,4)	(316,1)	(6,1)	(317,10)	(313,1)	(7,6)	(4,5)	(327,3)	(-37,1)	(-18,28)	(8,2)	(-41,1)	(-43,1)	(5,1)	(1,0)	(1,0)	
L1D -318>	(8,8)	(313,5)	(4,1)	(6,4)	(7,4)	(315,1)	(305,1)	(-19,1)	(316,1)	(1,0)	(1,0)	(1,0)	(1,0)	(1,0)	(1,0)	(1,0)	
L1D -317>	(2,5)	(-41,5)	(7,4)	(315,8)	(314,16)	(-46,2)	(316,15)	(1,11)	(313,20)	(6,9)	(3,1)	(5,8)	(-42,13)	(-37,3)	(-40,1)	(309,1)	
L1D -316>	(316,1)	(313,105)	(297,2)	(310,9)	(4,13)	(3,2)	(314,15)	(320,14)	(-43,5)	(2,7)	(306,1)	(311,8)	(315,1)	(318,1)	(321,2)	(-44,2)	
L1D -315>	(-41,3)	(-49,18)	(309,9)	(316,10)	(6,4)	(303,8)	(314,12)	(299,4)	(-25,5)	(294,1)	(311,30)	(3,56)	(312,7)	(302,3)	(-42,3)	(-45,13)	
L1D -314>	(2,28)	(-25,12)	(312,18)	(313,10)	(-3,1)	(316,10)	(299,2)	(304,15)	(293,3)	(-13,2)	(309,8)	(308,11)	(302,5)	(-48,2)	(310,22)	(311,20)	
L1D -313>	(-2,16)	(314,29)	(321,1)	(310,70)	(308,16)	(-26,19)	(309,29)	(311,107)	(305,15)	(317,4)	(298,16)	(312,38)	(1,14)	(-50,7)	(300,21)	(306,7)	
L1D -312>	(311,126)	(314,96)	(313,75)	(-48,9)	(310,117)	(2,57)	(309,104)	(-26,1)	(308,46)	(-27,14)	(326,20)	(13,20)	(323,25)	(10,21)	(3,41)	(307,38)	
L1D -311>	(-6,5)	(294,26)	(308,6)	(332,4)	(-37,2)	(-1,85)	(2,2)	(318,9)	(290,1)	(319,7)	(324,1)	(14,2)	(288,1)	(314,12)	(5,2)	(313,21)	
L1D -310>	(-2,118)	(-26,4)	(12,2)	(309,12)	(302,5)	(311,7)	(-17,1)	(315,5)	(322,3)	(294,3)	(313,9)	(312,14)	(-22,1)	(308,1)	(297,3)	(318,1)	
L1D -309>	(306,5)	(-52,17)	(316,57)	(318,1)	(-3,37)	(312,7)	(305,4)	(310,7)	(307,8)	(11,2)	(-48,14)	(-1,11)	(313,9)	(293,2)	(-46,5)	(292,2)	
L1D -308>	(293,2)	(309,4)	(299,9)	(312,22)	(-4,10)	(-52,2)	(311,18)	(310,6)	(319,3)	(-24,3)	(-2,5)	(-35,1)	(-48,5)	(-27,1)	(307,3)	(-28,3)	
L1D -307>	(312,8)	(-1,4)	(309,1)	(-5,8)	(-27,3)	(320,2)	(307,2)	(-48,1)	(311,3)	(-4,3)	(316,1)	(310,6)	(314,2)	(-52,1)	(313,1)	(1,0)	
L1D -306>	(-1,4)	(311,4)	(321,2)	(310,3)	(295,9)	(317,4)	(320,1)	(-5,4)	(312,8)	(-6,6)	(-38,1)	(-42,2)	(-43,1)	(-3,1)	(1,0)	(1,0)	
L1D -305>	(293,6)	(310,4)	(322,2)	(-7,10)	(2,1)	(311,9)	(306,13)	(308,6)	(307,8)	(321,3)	(-3,3)	(309,1)	(1,0)	(1,0)	(1,0)	(1,0)	
L1D -304>	(6,4)	(305,5)	(311,19)	(-6,4)	(306,6)	(312,1)	(-7,6)	(323,14)	(291,1)	(-8,12)	(325,2)	(310,3)	(-37,1)	(-1,2)	(326,1)	(-3,1)	
L1D -303>	(-1,2)	(-4,2)	(306,3)	(323,10)	(-9,12)	(311,13)	(313,1)	(-36,2)	(6,2)	(-48,2)	(308,2)	(-3,1)	(324,4)	(-7,2)	(-8,1)	(305,5)	
L1D -302>	(291,87)	(310,1)	(304,4)	(312,4)	(-10,17)	(-35,3)	(311,6)	(308,1)	(323,5)	(309,1)	(-9,3)	(-39,1)	(1,0)	(1,0)	(1,0)	(1,0)	
L1D -301>	(326,4)	(-11,9)	(-10,2)	(303,7)	(306,4)	(311,13)	(308,2)	(-1,4)	(325,8)	(-3,2)	(-2,1)	(309,2)	(307,2)	(304,3)	(310,1)	(1,0)	
L1D -300>	(-12,16)	(-37,2)	(301,5)	(311,6)	(-10,6)	(302,2)	(327,2)	(-1,4)	(-34,2)	(-2,1)	(-38,1)	(325,2)	(-11,2)	(1,0)	(1,0)	(1,0)	
L1D -299>	(327,10)	(311,15)	(-11,8)	(310,6)	(-13,7)	(-2,1)	(301,3)	(324,3)	(1,0)	(1,0)	(1,0)	(1,0)	(1,0)	(1,0)	(1,0)	(1,0)	
L1D -298>	(-14,16)	(299,6)	(-2,6)	(311,4)	(313,1)	(-13,1)	(1,0)	(1,0)	(1,0)	(1,0)	(1,0)	(1,0)	(1,0)	(1,0)	(1,0)	(1,0)	
L1D -297>	(-15,15)	(-43,1)	(-2,1)	(-1,2)	(311,10)	(-39,1)	(-20,1)	(1,0)	(1,0)	(1,0)	(1,0)	(1,0)	(1,0)	(1,0)	(1,0)	(1,0)	
L1D -296>	(291,25)	(298,2)	(-66,2)	(-16,5)	(297,4)	(311,9)	(-1,5)	(-2,3)	(309,2)	(1,0)	(1,0)	(1,0)	(1,0)	(1,0)	(1,0)	(1,0)	
L1D -295>	(311,7)	(301,51)	(-4,2)	(2,1)	(-17,12)	(309,2)	(299,1)	(297,1)	(-1,3)	(-15,2)	(296,1)	(1,0)	(1,0)	(1,0)	(1,0)	(1,0)	
L1D -294>	(311,8)	(295,9)	(-8,3)	(309,1)	(296,2)	(-18,2)	(1,0)	(1,0)	(1,0)	(1,0)	(1,0)	(1,0)	(1,0)	(1,0)	(1,0)	(1,0)	
L1D -293>	(-19,3)	(1,0)	(1,0)	(1,0)	(1,0)	(1,0)	(1,0)	(1,0)	(1,0)	(1,0)	(1,0)	(1,0)	(1,0)	(1,0)	(1,0)	(1,0)	
L1D -292>	(295,104)	(-48,1)	(-18,1)	(293,11)	(311,1)	(294,2)	(1,0)	(1,0)	(1,0)	(1,0)	(1,0)	(1,0)	(1,0)	(1,0)	(1,0)	(1,0)	
L1D -291>	(-20,4)	(311,4)	(309,1)	(-21,3)	(292,5)	(1,0)	(1,0)	(1,0)	(1,0)	(1,0)	(1,0)	(1,0)	(1,0)	(1,0)	(1,0)	(1,0)	
L1D -290>	(301,25)	(-22,8)	(291,1)	(311,2)	(-52,2)	(1,0)	(1,0)	(1,0)	(1,0)	(1,0)	(1,0)	(1,0)	(1,0)	(1,0)	(1,0)	(1,0)	
L1D -289>	(-22,2)	(2,1)	(-23,1)	(1,0)	(1,0)	(1,0)	(1,0)	(1,0)	(1,0)	(1,0)	(1,0)	(1,0)	(1,0)	(1,0)	(1,0)	(1,0)	
L1D -288>	(289,3)	(1,0)	(1,0)	(1,0)	(1,0)	(1,0)	(1,0)	(1,0)	(1,0)	(1,0)	(1,0)	(1,0)	(1,0)	(1,0)	(1,0)	(1,0)	
L1D -287>	(-25,1)	(1,0)	(1,0)	(1,0)	(1,0)	(1,0)	(1,0)	(1,0)	(1,0)	(1,0)	(1,0)	(1,0)	(1,0)	(1,0)	(1,0)	(1,0)	
L1D -286>	(288,1)	(-26,1)	(289,1)	(1,0)	(1,0)	(1,0)	(1,0)	(1,0)	(1,0)	(1,0)	(1,0)	(1,0)	(1,0)	(1,0)	(1,0)	(1,0)	
L1D -285>	(1,0)	(1,0)	(1,0)	(1,0)	(1,0)	(1,0)	(1,0)	(1,0)	(1,0)	(1,0)	(1,0)	(1,0)	(1,0)	(1,0)	(1,0)	(1,0)	
L1D -284>	(1,0)	(1,0)	(1,0)	(1,0)	(1,0)	(1,0)	(1,0)	(1,0)	(1,0)	(1,0)	(1,0)	(1,0)	(1,0)	(1,0)	(1,0)	(1,0)	
L1D -283>	(1,0)	(1,0)	(1,0)	(1,0)	(1,0)	(1,0)	(1,0)	(1,0)	(1,0)	(1,0)	(1,0)	(1,0)	(1,0)	(1,0)	(1,0)	(1,0)	
L1D -282>	(285,1)	(1,0)	(1,0)	(1,0)	(1,0)	(1,0)	(1,0)	(1,0)	(1,0)	(1,0)	(1,0)	(1,0)	(1,0)	(1,0)	(1,0)	(1,0)	
L1D -281>	(1,0)	(1,0)	(1,0)	(1,0)	(1,0)	(1,0)	(1,0)	(1,0)	(1,0)	(1,0)	(1,0)	(1,0)	(1,0)	(1,0)	(1,0)	(1,0)	
L1D -280>	(2,1)	(-8,2)	(1,0)	(1,0)	(1,0)	(1,0)	(1,0)	(1,0)	(1,0)	(1,0)	(1,0)	(1,0)	(1,0)	(1,0)	(1,0)	(1,0)	
L1D -279>	(291,1)	(1,1)	(1,0)	(1,0)	(1,0)	(1,0)	(1,0)	(1,0)	(1,0)	(1,0)	(1,0)	(1,0)	(1,0)	(1,0)	(1,0)	(1,0)	
L1D -278>	(1,0)	(1,0)	(1,0)	(1,0)	(1,0)	(1,0)	(1,0)	(1,0)	(1,0)	(1,0)	(1,0)	(1,0)	(1,0)	(1,0)	(1,0)	(1,0)	
L1D -277>	(1,3)	(1,0)	(1,0)	(1,0)	(1,0)	(1,0)	(1,0)	(1,0)	(1,0)	(1,0)	(1,0)	(1,0)	(1,0)	(1,0)	(1,0)	(1,0)	
L1D -276>	(-8,1)	(1,0)	(1,0)	(1,0)	(1,0)	(1,0)	(1,0)	(1,0)	(1,0)	(1,0)	(1,0)	(1,0)	(1,0)	(1,0)	(1,0)	(1,0)	
L1D -275>	(1,0)	(1,0)	(1,0)	(1,0)	(1,0)	(1,0)	(1,0)	(1,0)	(1,0)	(1,0)	(1,0)	(1,0)	(1,0)	(1,0)	(1,0)	(1,0)	
L1D -274>	(1,0)	(1,0)	(1,0)	(1,0)	(1,0)	(1,0)	(1,0)	(1,0)	(1,0)	(1,0)	(1,0)	(1,0)	(1,0)	(1,0)	(1,0)	(1,0)	
L1D -273>	(1,0)	(1,0)	(1,0)	(1,0)	(1,0)	(1,0)	(1,0)	(1,0)	(1,0)	(1,0)	(1,0)	(1,0)	(1,0)	(1,0)	(1,0)	(1,0)	
L1D -272>	(0,1)	(1,0)	(1,0)	(1,0)	(1,0)	(1,0)	(1,0)	(1,0)	(1,0)	(1,0)	(1,0)	(1,0)	(1,0)	(1,0)	(1,0)	(1,0)	
L1D -271>	(1,0)	(1,0)	(1,0)	(1,0)	(1,0)	(1,0)	(1,0)	(1,0)	(1,0)	(1,0)	(1,0)	(1,0)	(1,0)	(1,0)	(1,0)	(1,0)	
L1D -270>	(2,1)	(1,0)	(1,0)	(1,0)	(1,0)	(1,0)	(1,0)	(1,0)	(1,0)	(1,0)	(1,0)	(1,0)	(1,0)	(1,0)	(1,0)	(1,0)	
L1D -269>	(0,1)	(268,3)	(269,5)	(1,0)	(1,0)	(1,0)	(1,0)	(1,0)	(1,0)	(1,0)	(1,0)	(1,0)	(1,0)	(1,0)	(1,0)	(1,0)	
L1D -268>	(269,19)	(268,6)	(-73,2)	(2,1)	(9,1)	(1,0)	(1,0)	(1,0)	(1,0)	(1,0)	(1,0)	(1,0)	(1,0)	(1,0)	(1,0)	(1,0)	
L1D -267>	(0,3)	(268,1)	(1,0)	(1,0)	(1,0)	(1,0)	(1,0)	(1,0)	(1,0)	(1,0)	(1,0)	(1,0)	(1,0)	(1,0)	(1,0)	(1,0)	
L1D -266>	(267,0)	(1,6)	(-3,0)	(-75,0)	(-74,0)	(255,118)	(1,0)	(1,0)	(1,0)	(1,0)	(1,0)	(1,0)	(1,0)	(1,0)	(1,0)	(1,0)	
L1D -265>	(-45,0)	(138,0)	(2,0)	(264,69)	(-3,2)	(1,1)	(1,0)	(1,0)	(1,0)	(1,0)	(1,0)	(1,0)	(1,0)	(1,0)	(1,0)	(1,0)	
L1D -264>	(5,48)	(2,21)	(265,25)	(-46,1)	(1,0)	(1,0)	(1,0)	(1,0)	(1,0)	(1,0)	(1,0)	(1,0)	(1,0)	(1,0)	(1,0)	(1,0)	
L1D -263>	(-3,2)	(1,0)	(1,0)	(1,0)	(1,0)	(1,0)	(1,0)	(1,0)	(1,0)	(1,0)	(1,0)	(1,0)	(1,0)	(1,0)	(1,0)	(1,0)	
L1D -262>	(-3,114)	(3,70)	(0,1)	(1,0)	(1,0)	(1,0)	(1,0)	(1,0)	(1,0)	(1,0)	(1,0)	(1,0)	(1,0)	(1,0)	(1,0)	(1,0)	
L1D -261>	(1,0)	(1,0)	(1,0)	(1,0)	(1,0)	(1,0)	(1,0)	(1,0)	(1,0)	(1,0)	(1,0)	(1,0)	(1,0)	(1,0)	(1,0)	(1,0)	
L1D -260>	(-5,71)	(262,0)	(255,0)	(1,0)	(1,0)	(1,0)	(1,0)	(1,0)	(1,0)	(1,0)	(1,0)	(1,0)	(1,0)	(1,0)	(1,0)	(1,0)	
L1D -259>	(-5,11)	(-3,0)	(265,107)	(1,0)	(1,0)	(1,0)	(1,0)	(1,0)	(1,0)	(1,0)	(1,0)	(1,0)	(1,0)	(1,0)	(1,0)	(1,0)	
L1D -258>	(263,1)	(1,0)	(1,0)	(1,0)	(1,0)	(1,0)	(1,0)	(1,0)	(1,0)	(1,0)	(1,0)	(1,0)	(1,0)	(1,0)	(1,0)	(1,0)	
L1D -257>	(1,0)	(1,0)	(1,0)	(1,0)	(1,0)	(1,0)	(1,0)	(1,0)	(1,0)	(1,0)	(1,0)	(1,0)	(1,0)	(1,0)	(1,0)	(1,0)	
L1D -256>	(259,10)	(1,0)	(1,0)	(1,0)	(1,0)	(1,0)	(1,0)	(1,0)	(1,0)	(1,0)	(1,0)	(1,0)	(1,0)	(1,0)	(1,0)	(1,0)	
L1D -255>	(1,0)	(1,0)	(1,0)	(1,0)	(1,0)	(1,0)	(1,0)	(1,0)	(1,0)	(1,0)	(1,0)	(1,0)	(1,0)	(1,0)	(1,0)	(1,0)	
L1D -254>	(259,33)	(265,1)	(1,0)	(1,0)	(1,0)	(1,0)	(1,0)	(1,0)	(1,0)	(1,0)	(1,0)	(1,0)	(1,0)	(1,0)	(1,0)	(1,0)	
L1D -253>	(1,0)	(1,0)	(1,0)	(1,0)	(1,0)	(1,0)	(1,0)	(1,0)	(1,0)	(1,0)	(1,0)	(1,0)	(1,0)	(1,0)	(1,0)	(1,0)	
L1D -252>	(1,0)	(1,0)	(1,0)	(1,0)	(1,0)	(1,0)	(1,0)	(1,0)	(1,0)	(1,0)	(1,0)	(1,0)	(1,0)	(1,0)	(1,0)	(1,0)	
L1D -251>	(1,0)	(1,0)	(1,0)	(1,0)	(1,0)	(1,0)	(1,0)	(1,0)	(1,0)	(1,0)	(1,0)	(1,0)	(1,0)	(1,0)	(1,0)	(1,0)	
L1D -250>	(-20,1)	(1,0)	(1,0)	(1,0)	(1,0)	(1,0)	(1,0)	(1,0)	(1,0)	(1,0)	(1,0)	(1,0)	(1,0)	(1,0)	(1,0)	(1,0)	
L1D -249>	(2,1)	(1,0)	(1,0)	(1,0)	(1,0)	(1,0)	(1,0)	(1,0)	(1,0)	(1,0)	(1,0)	(1,0)	(1,0)	(1,0)	(1,0)	(1,0)	
L1D -248>	(1,0)	(1,0)	(1,0)	(1,0)	(1,0)	(1,0)	(1,0)	(1,0)	(1,0)	(1,0)	(1,0)	(1,0)	(1,0)	(1,0)	(1,0)	(1,0)	
L1D -247>	(64,1)	(1,0)	(1,0)	(1,0)	(1,0)	(1,0)	(1,0)	(1,0)	(1,0)	(1,0)	(1,0)	(1,0)	(1,0)	(1,0)	(1,0)	(1,0)	
L1D -246>	(1,0)	(1,0)	(1,0)	(1,0)	(1,0)	(1,0)	(1,0)	(1,0)	(1,0)	(1,0)	(1,0)	(1,0)	(1,0)	(1,0)	(1,0)	(1,0)	
L1D -245>	(2,7)	(1,1)	(4,1)	(1,0)	(1,0)	(1,0)	(1,0)	(1,0)	(1,0)	(1,0)	(1,0)	(1,0)	(1,0)	(1,0)	(1,0)	(1,0)	
L1D -244>	(1,3)	(-1,1)	(0,5)	(2,34)	(4,6)	(3,1)	(245,1)	(1,0)	(1,0)	(1,0)	(1,0)	(1,0)	(1,0)	(1,0)	(1,0)	(1,0)	
L1D -243>	(6,6)	(-1,3)	(1,2)	(2,1)	(1,0)	(1,0)	(1,0)	(1,0)	(1,0)	(1,0)	(1,0)	(1,0)	(1,0)	(1,0)	(1,0)	(1,0)	
L1D -242>	(2,6)	(1,2)	(4,1)	(1,0)	(1,0)	(1,0)	(1,0)	(1,0)	(1,0)	(1,0)	(1,0)	(1,0)	(1,0)	(1,0)	(1,0)	(1,0)	
L1D -241>	(1,1)	(1,0)	(1,0)	(1,0)	(1,0)	(1,0)	(1,0)	(1,0)	(1,0)	(1,0)	(1,0)	(1,0)	(1,0)	(1,0)	(1,0)	(1,0)	
L1D -240>	(2,1)	(240,1)	(1,0)	(1,0)	(1,0)	(1,0)	(1,0)	(1,0)	(1,0)	(1,0)	(1,0)	(1,0)	(1,0)	(1,0)	(1,0)	(1,0)	
L1D -239>	(186,28)	(0,1)	(1,0)	(1,0)	(1,0)	(1,0)	(1,0)	(1,0)	(1,0)	(1,0)	(1,0)	(1,0)	(1,0)	(1,0)	(1,0)	(1,0)	
L1D -238>	(1,27)	(1,0)	(1,0)	(1,0)	(1,0)	(1,0)	(1,0)	(1,0)	(1,0)	(1,0)	(1,0)	(1,0)	(1,0)	(1,0)	(1,0)	(1,0)	
L1D -237>	(1,1)	(1,0)	(1,0)	(1,0)	(1,0)	(1,0)	(1,0)	(1,0)	(1,0)	(1,0)	(1,0)	(1,0)	(1,0)	(1,0)	(1,0)	(1,0)	
L1D -236>	(1,0)	(1,0)	(1,0)	(1,0)	(1,0)	(1,0)	(1,0)	(1,0)	(1,0)	(1,0)	(1,0)	(1,0)	(1,0)	(1,0)	(1,0)	(1,0)	
L1D -235>	(1,0)	(1,0)	(1,0)	(1,0)	(1,0)	(1,0)	(1,0)	(1,0)	(1,0)	(1,0)	(1,0)	(1,0)	(1,0)	(1,0)	(1,0)	(1,0)	
L1D -234>	(1,0)	(1,0)	(1,0)	(1,0)	(1,0)	(1,0)	(1,0)	(1,0)	(1,0)	(1,0)	(1,0)	(1,0)	(1,0)	(1,0)	(1,0)	(1,0)	
L1D -233>	(1,0)	(1,0)	(1,0)	(1,0)	(1,0)	(1,0)	(1,0)	(1,0)	(1,0)	(1,0)	(1,0)	(1,0)	(1,0)	(1,0)	(1,0)	(1,0)	
L1D -232>	(5,6)	(186,2)	(185,2)	(1,0)	(1,0)	(1,0)	(1,0)	(1,0)	(1,0)	(1,0)	(1,0)	(1,0)	(1,0)	(1,0)	(1,0)	(1,0)	
L1D -231>	(3,72)	(1,2)	(233,1)	(232,2)	(1,0)	(1,0)	(1,0)	(1,0)	(1,0)	(1,0)	(1,0)	(1,0)	(1,0)	(1,0)	(1,0)	(1,0)	
L1D -230>	(2,2)	(-8,3)	(186,1)	(1,0)	(1,0)	(1,0)	(1,0)	(1,0)	(1,0)	(1,0)	(1,0)	(1,0)	(1,0)	(1,0)	(1,0)	(1,0)	
L1D -229>	(230,2)	(1,0)	(1,0)	(1,0)	(1,0)	(1,0)	(1,0)	(1,0)	(1,0)	(1,0)	(1,0)	(1,0)	(1,0)	(1,0)	(1,0)	(1,0)	
L1D -228>	(3,3)	(1,0)	(1,0)	(1,0)	(1,0)	(1,0)	(1,0)	(1,0)	(1,0)	(1,0)	(1,0)	(1,0)	(1,0)	(1,0)	(1,0)	(1,0)	
L1D -227>	(224,1)	(180,67)	(1,0)	(1,0)	(1,0)	(1,0)	(1,0)	(1,0)	(1,0)	(1,0)	(1,0)	(1,0)	(1,0)	(1,0)	(1,0)	(1,0)	
L1D -226>	(1,0)	(1,0)	(1,0)	(1,0)	(1,0)	(1,0)	(1,0)	(1,0)	(1,0)	(1,0)	(1,0)	(1,0)	(1,0)	(1,0)	(1,0)	(1,0)	
L1D -225>	(2,1)	(180,4)	(-6,1)	(1,0)	(1,0)	(1,0)	(1,0)	(1,0)	(1,0)	(1,0)	(1,0)	(1,0)	(1,0)	(1,0)	(1,0)	(1,0)	
L1D -224>	(1,0)	(1,0)	(1,0)	(1,0)	(1,0)	(1,0)	(1,0)	(1,0)	(1,0)	(1,0)	(1,0)	(1,0)	(1,0)	(1,0)	(1,0)	(1,0)	
L1D -223>	(1,0)	(1,0)	(1,0)	(1,0)	(1,0)	(1,0)	(1,0)	(1,0)	(1,0)	(1,0)	(1,0)	(1,0)	(1,0)	(1,0)	(1,0)	(1,0)	
L1D -222>	(1,0)	(1,0)	(1,0)	(1,0)	(1,0)	(1,0)	(1,0)	(1,0)	(1,0)	(1,0)	(1,0)	(1,0)	(1,0)	(1,0)	(1,0)	(1,0)	
L1D -221>	(225,1)	(106,3)	(1,0)	(1,0)	(1,0)	(1,0)	(1,0)	(1,0)	(1,0)	(1,0)	(1,0)	(1,0)	(1,0)	(1,0)	(1,0)	(1,0)	
L1D -220>	(2,32)	(1,0)	(1,0)	(1,0)	(1,0)	(1,0)	(1,0)	(1,0)	(1,0)	(1,0)	(1,0)	(1,0)	(1,0)	(1,0)	(1,0)	(1,0)	
L1D -219>	(2,78)	(1,0)	(1,0)	(1,0)	(1,0)	(1,0)	(1,0)	(1,0)	(1,0)	(1,0)	(1,0)	(1,0)	(1,0)	(1,0)	(1,0)	(1,0)	
L1D -218>	(2,2)	(1,0)	(1,0)	(1,0)	(1,0)	(1,0)	(1,0)	(1,0)	(1,0)	(1,0)	(1,0)	(1,0)	(1,0)	(1,0)	(1,0)	(1,0)	
L1D -217>	(32,1)	(2,3)	(1,0)	(1,0)	(1,0)	(1,0)	(1,0)	(1,0)	(1,0)	(1,0)	(1,0)	(1,0)	(1,0)	(1,0)	(1,0)	(1,0)	
L1D -216>	(2,1)	(1,0)	(1,0)	(1,0)	(1,0)	(1,0)	(1,0)	(1,0)	(1,0)	(1,0)	(1,0)	(1,0)	(1,0)	(1,0)	(1,0)	(1,0)	
L1D -215>	(98,90)	(2,1)	(1,0)	(1,0)	(1,0)	(1,0)	(1,0)	(1,0)	(1,0)	(1,0)	(1,0)	(1,0)	(1,0)	(1,0)	(1,0)	(1,0)	
L1D -214>	(1,0)	(1,0)	(1,0)	(1,0)	(1,0)	(1,0)	(1,0)	(1,0)	(1,0)	(1,0)	(1,0)	(1,0)	(1,0)	(1,0)	(1,0)	(1,0)	
L1D -213>	(2,2)	(1,0)	(1,0)	(1,0)	(1,0)	(1,0)	(1,0)	(1,0)	(1,0)	(1,0)	(1,0)	(1,0)	(1,0)	(1,0)	(1,0)	(1,0)	
L1D -212>	(215,1)	(1,0)	(1,0)	(1,0)	(1,0)	(1,0)	(1,0)	(1,0)	(1,0)	(1,0)	(1,0)	(1,0)	(1,0)	(1,0)	(1,0)	(1,0)	
L1D -211>	(215,1)	(1,0)	(1,0)	(1,0)	(1,0)	(1,0)	(1,0)	(1,0)	(1,0)	(1,0)	(1,0)	(1,0)	(1,0)	(1,0)	(1,0)	(1,0)	
L1D -210>	(215,3)	(1,0)	(1,0)	(1,0)	(1,0)	(1,0)	(1,0)	(1,0)	(1,0)	(1,0)	(1,0)	(1,0)	(1,0)	(1,0)	(1,0)	(1,0)	
L1D -209>	(2,1)	(1,0)	(1,0)	(1,0)	(1,0)	(1,0)	(1,0)	(1,0)	(1,0)	(1,0)	(1,0)	(1,0)	(1,0)	(1,0)	(1,0)	(1,0)	
L1D -208>	(1,0)	(1,0)	(1,0)	(1,0)	(1,0)	(1,0)	(1,0)	(1,0)	(1,0)	(1,0)	(1,0)	(1,0)	(1,0)	(1,0)	(1,0)	(1,0)	
L1D -207>	(210,12)	(1,0)	(1,0)	(1,0)	(1,0)	(1,0)	(1,0)	(1,0)	(1,0)	(1,0)	(1,0)	(1,0)	(1,0)	(1,0)	(1,0)	(1,0)	
L1D -206>	(43,12)	(2,1)	(1,0)	(1,0)	(1,0)	(1,0)	(1,0)	(1,0)	(1,0)	(1,0)	(1,0)	(1,0)	(1,0)	(1,0)	(1,0)	(1,0)	
L1D -205>	(2,1)	(1,0)	(1,0)	(1,0)	(1,0)	(1,0)	(1,0)	(1,0)	(1,0)	(1,0)	(1,0)	(1,0)	(1,0)	(1,0)	(1,0)	(1,0)	
L1D -204>	(177,1)	(1,0)	(1,0)	(1,0)	(1,0)	(1,0)	(1,0)	(1,0)	(1,0)	(1,0)	(1,0)	(1,0)	(1,0)	(1,0)	(1,0)	(1,0)	
L1D -203>	(204,1)	(0,1)	(27,2)	(1,0)	(1,0)	(1,0)	(1,0)	(1,0)	(1,0)	(1,0)	(1,0)	(1,0)	(1,0)	(1,0)	(1,0)	(1,0)	
L1D -202>	(2,66)	(208,99)	(1,46)	(180,2)	(-20,1)	(56,1)	(1,0)	(1,0)	(1,0)	(1,0)	(1,0)	(1,0)	(1,0)	(1,0)	(1,0)	(1,0)	
L1D -201>	(177,11)	(200,11)	(25,4)	(2,2)	(1,2)	(1,0)	(1,0)	(1,0)	(1,0)	(1,0)	(1,0)	(1,0)	(1,0)	(1,0)	(1,0)	(1,0)	
L1D -200>	(201,1)	(206,40)	(177,11)	(178,68)	(198,18)	(24,26)	(194,1)	(23,6)	(1,3)	(1,0)	(1,0)	(1,0)	(1,0)	(1,0)	(1,0)	(1,0)	
L1D -199>	(2,115)	(202,13)	(1,4)	(198,28)	(23,33)	(177,7)	(178,2)	(1,0)	(1,0)	(1,0)	(1,0)	(1,0)	(1,0)	(1,0)	(1,0)	(1,0)	
L1D -198>	(1,2)	(25,1)	(177,31)	(22,7)	(2,1)	(197,7)	(194,2)	(1,0)	(1,0)	(1,0)	(1,0)	(1,0)	(1,0)	(1,0)	(1,0)	(1,0)	
L1D -197>	(202,6)	(2,27)	(177,4)	(1,85)	(21,12)	(196,4)	(180,0)	(200,0)	(1,0)	(1,0)	(1,0)	(1,0)	(1,0)	(1,0)	(1,0)	(1,0)	
L1D -196>	(197,1)	(-1,1)	(20,48)	(177,17)	(21,4)	(178,1)	(195,3)	(1,1)	(198,1)	(1,0)	(1,0)	(1,0)	(1,0)	(1,0)	(1,0)	(1,0)	
L1D -195>	(197,3)	(1,3)	(180,4)	(194,29)	(19,61)	(177,15)	(0,1)	(178,1)	(1,0)	(1,0)	(1,0)	(1,0)	(1,0)	(1,0)	(1,0)	(1,0)	
L1D -194>	(11,6)	(18,79)	(177,19)	(1,28)	(193,3)	(19,1)	(1,0)	(1,0)	(1,0)	(1,0)	(1,0)	(1,0)	(1,0)	(1,0)	(1,0)	(1,0)	
L1D -193>	(17,13)	(1,103)	(193,2)	(192,16)	(177,16)	(16,0)	(18,1)	(180,0)	(10,1)	(1,0)	(1,0)	(1,0)	(1,0)	(1,0)	(1,0)	(1,0)	
L1D -192>	(1,51)	(16,65)	(197,1)	(177,35)	(178,3)	(2,1)	(17,6)	(191,3)	(179,1)	(187,1)	(196,1)	(188,5)	(1,0)	(1,0)	(1,0)	(1,0)	
L1D -191>	(196,1)	(190,22)	(16,24)	(177,51)	(15,88)	(179,3)	(180,11)	(3,3)	(14,5)	(1,6)	(189,2)	(2,5)	(1,0)	(1,0)	(1,0)	(1,0)	
L1D -190>	(6,70)	(191,1)	(2,7)	(189,22)	(14,44)	(13,2)	(177,28)	(11,7)	(179,9)	(5,2)	(9,2)	(8,1)	(178,2)	(0,2)	(1,0)	(1,0)	
L1D -189>	(1,98)	(13,30)	(195,5)	(188,4)	(190,25)	(187,14)	(8,5)	(4,1)	(178,10)	(177,20)	(6,1)	(11,3)	(14,8)	(12,4)	(-5,1)	(1,0)	
L1D -188>	(10,1)	(12,7)	(187,0)	(190,1)	(188,13)	(44,123)	(13,1)	(1,5)	(11,7)	(179,0)	(177,2)	(186,0)	(8,0)	(184,0)	(1,0)	(1,0)	
L1D -187>	(43,1)	(11,37)	(188,1)	(44,1)	(10,16)	(176,8)	(12,11)	(177,20)	(1,6)	(8,13)	(1,0)	(1,0)	(1,0)	(1,0)	(1,0)	(1,0)	
L1D -186>	(1,15)	(2,78)	(185,56)	(10,36)	(184,16)	(9,4)	(12,6)	(8,9)	(5,7)	(177,6)	(231,1)	(6,0)	(197,1)	(11,5)	(181,0)	(0,1)	
L1D -185>	(1,66)	(184,4)	(185,0)	(9,8)	(177,12)	(2,0)	(8,4)	(10,0)	(6,1)	(183,0)	(230,0)	(7,0)	(187,1)	(1,0)	(1,0)	(1,0)	
L1D -184>	(8,94)	(0,23)	(177,61)	(181,1)	(-1,11)	(6,17)	(4,9)	(182,16)	(183,40)	(21,7)	(3,4)	(178,6)	(186,1)	(2,1)	(5,2)	(1,0)	
L1D -183>	(190,11)	(8,29)	(7,28)	(9,14)	(177,9)	(179,18)	(6,13)	(193,7)	(181,12)	(188,10)	(2,4)	(182,11)	(180,5)	(-13,1)	(4,10)	(178,1)	
L1D -182>	(179,2)	(175,1)	(6,104)	(177,5)	(169,9)	(5,19)	(178,17)	(165,7)	(181,6)	(187,7)	(7,6)	(8,12)	(180,14)	(13,3)	(176,2)	(188,13)	
L1D -181>	(5,10)	(175,55)	(176,12)	(168,7)	(178,11)	(187,4)	(185,3)	(186,21)	(184,10)	(179,6)	(169,3)	(177,13)	(7,2)	(6,11)	(173,1)	(1,3)	
L1D -180>	(4,9)	(167,4)	(163,22)	(176,49)	(-1,2)	(175,59)	(184,13)	(179,9)	(166,6)	(164,37)	(182,9)	(168,5)	(174,23)	(181,6)	(178,9)	(177,5)	
L1D -179>	(3,34)	(171,6)	(175,70)	(182,20)	(174,95)	(176,42)	(1,13)	(163,19)	(173,39)	(177,30)	(165,24)	(-2,7)	(170,11)	(168,36)	(166,23)	(181,1)	
L1D -178>	(172,14)	(176,29)	(-1,89)	(175,124)	(165,32)	(173,39)	(161,1)	(169,24)	(164,45)	(174,69)	(171,12)	(167,13)	(170,15)	(-2,7)	(-7,7)	(168,9)	
L1D -177>	(-2,23)	(171,52)	(175,111)	(169,1)	(-1,93)	(173,57)	(-15,3)	(172,15)	(170,18)	(164,24)	(-3,8)	(176,10)	(166,15)	(168,34)	(186,14)	(174,31)	
L1D -176>	(175,110)	(169,12)	(173,63)	(163,32)	(180,23)	(178,36)	(3,6)	(177,58)	(165,16)	(181,19)	(170,24)	(186,22)	(174,95)	(-2,1)	(162,18)	(189,5)	
L1D -175>	(-3,1)	(163,4)	(-1,72)	(178,15)	(172,12)	(177,8)	(161,2)	(9,2)	(185,5)	(183,6)	(179,3)	(173,8)	(165,7)	(170,4)	(180,4)	(154,4)	
L1D -174>	(179,14)	(175,32)	(174,12)	(1,24)	(-2,23)	(185,7)	(178,92)	(172,12)	(170,1)	(162,4)	(184,7)	(167,9)	(176,2)	(177,48)	(171,7)	(8,2)	
L1D -173>	(175,53)	(174,37)	(316,109)	(177,81)	(159,13)	(181,17)	(178,42)	(173,27)	(171,25)	(-3,95)	(176,51)	(191,7)	(1,24)	(179,33)	(-2,1)	(170,28)	
L1D -172>	(163,2)	(171,84)	(173,4)	(-4,6)	(168,4)	(175,20)	(174,21)	(176,9)	(177,4)	(4,3)	(159,2)	(182,1)	(169,2)	(180,11)	(178,3)	(-3,2)	
L1D -171>	(174,12)	(183,14)	(172,28)	(175,6)	(177,5)	(-3,38)	(181,14)	(189,4)	(173,71)	(80,1)	(167,12)	(163,6)	(176,12)	(-1,6)	(170,85)	(182,9)	
L1D -170>	(-2,1)	(176,6)	(171,1)	(169,124)	(182,6)	(178,3)	(172,22)	(180,3)	(175,4)	(186,6)	(179,5)	(-5,2)	(-6,1)	(174,2)	(173,5)	(-1,2)	
L1D -169>	(187,3)	(78,1)	(2,112)	(1,4)	(-2,0)	(-1,0)	(178,1)	(188,0)	(171,2)	(-7,2)	(175,1)	(182,0)	(160,1)	(185,0)	(173,0)	(172,0)	
L1D -168>	(169,8)	(9,19)	(1,28)	(-1,28)	(176,27)	(170,24)	(-2,13)	(181,12)	(-7,18)	(175,39)	(-4,9)	(-8,21)	(173,4)	(-5,1)	(178,2)	(188,19)	
L1D -167>	(175,11)	(166,90)	(185,2)	(-7,1)	(-9,6)	(182,2)	(170,1)	(174,4)	(169,12)	(171,2)	(168,2)	(176,3)	(-3,3)	(190,3)	(181,2)	(-2,1)	
L1D -166>	(-10,67)	(175,27)	(170,1)	(167,22)	(-1,55)	(176,10)	(168,15)	(174,9)	(189,12)	(188,2)	(-2,2)	(163,1)	(190,3)	(171,4)	(183,4)	(169,2)	
L1D -165>	(166,9)	(175,29)	(72,75)	(-11,28)	(189,14)	(187,18)	(167,64)	(-2,18)	(-10,15)	(174,21)	(-1,15)	(-9,7)	(190,14)	(188,3)	(-8,2)	(182,4)	
L1D -164>	(165,6)	(175,47)	(-12,101)	(166,23)	(-1,15)	(176,3)	(-11,23)	(-3,15)	(173,11)	(190,2)	(188,12)	(-9,8)	(170,12)	(178,2)	(174,4)	(-2,12)	
L1D -163>	(164,26)	(-13,27)	(-1,14)	(184,8)	(165,112)	(-12,16)	(189,18)	(-11,3)	(175,28)	(186,3)	(174,9)	(187,5)	(173,10)	(172,1)	(178,2)	(185,1)	
L1D -162>	(163,42)	(-14,71)	(1,1)	(190,21)	(172,19)	(164,60)	(166,19)	(175,53)	(76,5)	(176,9)	(173,6)	(-3,2)	(-13,1)	(174,1)	(-1,1)	(1,0)	
L1D -161>	(162,43)	(-15,21)	(175,27)	(172,25)	(163,97)	(174,6)	(-14,13)	(169,4)	(191,6)	(-1,8)	(164,0)	(1,0)	(1,0)	(1,0)	(1,0)	(1,0)	
L1D -160>	(175,12)	(161,10)	(157,10)	(-1,17)	(-13,12)	(174,24)	(2,1)	(-16,20)	(162,2)	(187,2)	(-15,2)	(172,5)	(159,48)	(1,0)	(1,0)	(1,0)	
L1D -159>	(9,2)	(186,0)	(161,12)	(-3,1)	(173,2)	(175,12)	(174,9)	(-2,5)	(157,1)	(158,79)	(160,7)	(-34,0)	(150,0)	(172,1)	(-17,4)	(149,2)	
L1D -158>	(1,1)	(175,38)	(118,1)	(-18,41)	(-1,36)	(-35,3)	(174,10)	(-15,3)	(-2,1)	(157,3)	(162,1)	(172,1)	(1,0)	(1,0)	(1,0)	(1,0)	
L1D -157>	(118,4)	(-19,4)	(174,2)	(-16,8)	(-1,19)	(-18,3)	(-2,5)	(173,1)	(172,2)	(158,1)	(175,2)	(159,5)	(1,0)	(1,0)	(1,0)	(1,0)	
L1D -156>	(0,10)	(175,5)	(64,110)	(159,9)	(174,19)	(152,6)	(-3,24)	(-20,2)	(155,2)	(-19,7)	(157,5)	(-18,1)	(158,4)	(1,0)	(1,0)	(1,0)	
L1D -155>	(-21,5)	(-3,7)	(-20,33)	(154,2)	(-1,10)	(17,1)	(173,1)	(1,0)	(1,0)	(1,0)	(1,0)	(1,0)	(1,0)	(1,0)	(1,0)	(1,0)	
L1D -154>	(94,12)	(-19,1)	(153,84)	(91,1)	(150,2)	(92,7)	(93,37)	(89,0)	(152,7)	(-1,5)	(147,1)	(148,3)	(145,2)	(-20,1)	(146,4)	(143,1)	
L1D -153>	(93,111)	(-22,1)	(150,9)	(-1,7)	(91,10)	(138,2)	(90,5)	(152,1)	(94,7)	(153,4)	(92,6)	(145,2)	(78,7)	(151,2)	(140,1)	(89,4)	
L1D -152>	(92,80)	(150,3)	(93,96)	(149,4)	(-1,11)	(137,3)	(89,14)	(94,1)	(91,8)	(148,2)	(145,6)	(140,2)	(79,8)	(143,3)	(175,1)	(90,3)	
L1D -151>	(91,24)	(150,122)	(1,26)	(153,1)	(140,37)	(93,32)	(142,8)	(154,16)	(89,53)	(149,25)	(145,29)	(-1,4)	(88,21)	(90,11)	(139,15)	(146,11)	
L1D -150>	(90,13)	(149,83)	(128,1)	(148,6)	(82,1)	(152,1)	(91,6)	(147,1)	(145,1)	(89,10)	(93,2)	(134,2)	(142,2)	(12,3)	(154,8)	(151,3)	
L1D -149>	(145,20)	(141,1)	(89,10)	(138,28)	(11,69)	(90,12)	(92,7)	(140,15)	(139,10)	(-1,10)	(87,17)	(-10,91)	(88,12)	(147,9)	(154,10)	(153,11)	
L1D -148>	(147,77)	(56,121)	(151,11)	(153,8)	(146,5)	(90,8)	(93,3)	(148,21)	(145,4)	(-4,3)	(10,13)	(139,1)	(-1,3)	(150,3)	(-5,2)	(94,3)	
L1D -147>	(92,4)	(146,127)	(103,1)	(1,6)	(148,9)	(133,26)	(154,37)	(89,14)	(9,16)	(8,8)	(139,9)	(143,15)	(88,9)	(90,12)	(145,11)	(153,6)	
L1D -146>	(-1,2)	(145,71)	(141,1)	(104,62)	(135,1)	(144,4)	(98,3)	(103,8)	(101,4)	(139,3)	(154,1)	(102,2)	(153,1)	(142,2)	(99,1)	(151,1)	
L1D -145>	(143,7)	(140,2)	(103,118)	(132,1)	(7,24)	(-3,2)	(102,7)	(144,8)	(154,14)	(142,1)	(86,4)	(-1,5)	(96,11)	(104,24)	(130,2)	(133,12)	
L1D -144>	(5,2)	(102,50)	(144,7)	(86,1)	(6,9)	(141,8)	(143,16)	(104,20)	(177,2)	(133,4)	(1,67)	(7,2)	(155,2)	(-50,10)	(142,3)	(154,10)	
L1D -143>	(-1,22)	(142,68)	(147,26)	(101,24)	(145,7)	(141,22)	(-5,27)	(132,48)	(104,35)	(91,11)	(100,26)	(144,47)	(103,40)	(137,16)	(140,2)	(94,17)	
L1D -142>	(100,24)	(133,1)	(98,19)	(101,6)	(97,2)	(102,3)	(141,3)	(84,4)	(75,1)	(140,5)	(136,117)	(127,5)	(138,25)	(137,37)	(99,8)	(1,6)	
L1D -141>	(90,3)	(-1,5)	(99,12)	(140,7)	(98,14)	(137,15)	(100,40)	(136,42)	(3,43)	(135,6)	(139,97)	(130,6)	(128,17)	(103,6)	(138,1)	(127,5)	
L1D -140>	(98,10)	(123,3)	(154,43)	(137,124)	(99,4)	(-10,45)	(100,19)	(136,33)	(132,11)	(89,1)	(133,5)	(-1,11)	(146,9)	(134,16)	(125,31)	(145,10)	
L1D -139>	(142,4)	(132,7)	(125,4)	(137,24)	(131,3)	(145,2)	(-1,1)	(143,6)	(136,80)	(1,51)	(134,5)	(140,8)	(127,4)	(130,8)	(138,27)	(135,8)	
L1D -138>	(137,30)	(138,27)	(141,31)	(136,42)	(133,12)	(139,50)	(-1,22)	(143,25)	(135,15)	(140,64)	(134,30)	(142,11)	(-35,1)	(145,13)	(146,6)	(131,9)	
L1D -137>	(79,2)	(104,2)	(142,8)	(-1,7)	(269,1)	(1,10)	(138,114)	(3,8)	(137,4)	(140,12)	(-2,1)	(154,5)	(127,7)	(4,8)	(139,31)	(9,13)	
L1D -136>	(136,28)	(139,8)	(140,10)	(134,7)	(1,62)	(-2,21)	(44,118)	(2,16)	(138,11)	(-1,11)	(127,6)	(142,13)	(147,1)	(137,16)	(131,4)	(143,12)	
L1D -135>	(102,2)	(144,2)	(137,4)	(124,9)	(146,2)	(133,11)	(134,3)	(1,4)	(2,115)	(132,1)	(154,8)	(152,2)	(138,25)	(-2,4)	(96,1)	(136,5)	
L1D -134>	(136,2)	(72,1)	(133,102)	(129,14)	(-1,71)	(132,71)	(130,25)	(92,83)	(127,17)	(111,59)	(128,25)	(131,55)	(119,12)	(126,10)	(122,34)	(124,5)	
L1D -133>	(132,62)	(129,28)	(131,38)	(-1,44)	(154,12)	(91,81)	(133,37)	(130,16)	(126,1)	(84,4)	(128,18)	(134,7)	(1,24)	(51,28)	(90,10)	(120,5)	
L1D -132>	(90,96)	(126,49)	(133,124)	(-1,67)	(129,42)	(131,60)	(134,30)	(72,26)	(104,1)	(92,25)	(130,64)	(125,19)	(128,15)	(145,20)	(83,9)	(91,6)	
L1D -131>	(130,108)	(-1,63)	(89,126)	(132,60)	(2,5)	(129,102)	(126,37)	(133,69)	(125,20)	(98,37)	(148,55)	(154,63)	(146,59)	(71,1)	(116,48)	(87,21)	
L1D -130>	(88,31)	(129,24)	(124,28)	(133,90)	(123,27)	(125,56)	(131,15)	(8,1)	(128,12)	(73,7)	(122,22)	(132,28)	(134,20)	(-8,10)	(6,48)	(81,15)	
L1D -129>	(132,51)	(125,7)	(85,1)	(116,14)	(128,31)	(117,22)	(134,36)	(127,25)	(87,3)	(98,15)	(-9,23)	(119,13)	(131,92)	(90,6)	(144,23)	(71,9)	
L1D -128>	(1,37)	(144,6)	(132,4)	(154,25)	(123,5)	(87,14)	(133,80)	(134,24)	(130,1)	(129,6)	(99,7)	(131,16)	(137,2)	(117,11)	(119,5)	(77,6)	
L1D -127>	(-75,96)	(125,14)	(146,11)	(117,23)	(131,76)	(154,38)	(128,5)	(144,18)	(118,1)	(145,25)	(133,34)	(134,65)	(129,33)	(87,26)	(132,11)	(130,44)	
L1D -126>	(130,1)	(131,4)	(84,111)	(121,15)	(133,8)	(111,74)	(122,15)	(134,17)	(120,24)	(125,54)	(-1,26)	(119,80)	(123,51)	(124,37)	(117,31)	(132,2)	
L1D -125>	(134,36)	(124,82)	(-1,61)	(123,70)	(43,33)	(131,1)	(4,5)	(120,19)	(83,60)	(121,32)	(125,40)	(66,39)	(119,26)	(122,55)	(118,7)	(8,45)	
L1D -124>	(116,12)	(127,24)	(82,98)	(123,16)	(122,36)	(-1,112)	(120,12)	(125,56)	(126,12)	(8,13)	(132,1)	(80,31)	(128,14)	(121,9)	(134,60)	(130,21)	
L1D -123>	(133,1)	(-1,7)	(82,1)	(124,6)	(121,1)	(125,4)	(131,1)	(81,13)	(122,3)	(80,1)	(126,1)	(1,95)	(132,4)	(130,1)	(84,3)	(83,3)	
L1D -122>	(132,1)	(-1,16)	(6,82)	(4,31)	(127,2)	(119,17)	(124,12)	(78,6)	(121,24)	(125,35)	(80,18)	(133,14)	(8,36)	(111,8)	(120,33)	(83,5)	
L1D -121>	(122,11)	(117,1)	(76,9)	(119,49)	(121,49)	(123,43)	(-1,33)	(82,2)	(124,26)	(120,46)	(79,71)	(114,4)	(118,31)	(80,15)	(77,3)	(126,22)	
L1D -120>	(121,10)	(153,30)	(79,15)	(133,62)	(6,32)	(117,17)	(78,40)	(119,29)	(122,5)	(134,46)	(115,1)	(113,14)	(120,28)	(-1,77)	(146,30)	(123,27)	
L1D -119>	(120,22)	(122,9)	(117,98)	(116,49)	(134,35)	(103,1)	(79,3)	(126,5)	(118,14)	(77,57)	(-1,83)	(121,21)	(124,22)	(125,54)	(76,6)	(123,9)	
L1D -118>	(115,49)	(119,6)	(77,1)	(76,43)	(113,31)	(75,4)	(120,5)	(-1,103)	(116,88)	(100,1)	(2,69)	(114,61)	(117,111)	(134,12)	(121,5)	(111,60)	
L1D -117>	(80,9)	(115,14)	(116,33)	(119,12)	(118,13)	(-1,20)	(75,35)	(150,2)	(114,10)	(117,16)	(35,121)	(121,19)	(134,1)	(34,40)	(125,3)	(120,14)	
L1D -116>	(115,0)	(74,2)	(118,1)	(84,0)	(36,0)	(114,0)	(134,0)	(111,2)	(149,0)	(109,1)	(-1,2)	(76,0)	(117,2)	(116,0)	(121,0)	(105,120)	
L1D -115>	(122,1)	(-1,3)	(116,11)	(55,125)	(100,0)	(74,0)	(117,14)	(73,24)	(2,0)	(118,14)	(84,0)	(-18,3)	(75,2)	(121,0)	(-19,1)	(1,0)	
L1D -114>	(111,114)	(2,1)	(72,1)	(100,1)	(116,2)	(44,35)	(117,5)	(76,32)	(115,2)	(118,2)	(80,2)	(109,0)	(1,0)	(1,0)	(1,0)	(1,0)	
L1D -113>	(146,3)	(111,0)	(121,0)	(2,2)	(100,0)	(84,122)	(42,27)	(118,4)	(116,0)	(1,0)	(1,0)	(1,0)	(1,0)	(1,0)	(1,0)	(1,0)	
L1D -112>	(109,20)	(145,49)	(6,1)	(1,0)	(1,0)	(1,0)	(1,0)	(1,0)	(1,0)	(1,0)	(1,0)	(1,0)	(1,0)	(1,0)	(1,0)	(1,0)	
L1D -111>	(112,3)	(-2,2)	(109,1)	(5,1)	(1,0)	(1,0)	(1,0)	(1,0)	(1,0)	(1,0)	(1,0)	(1,0)	(1,0)	(1,0)	(1,0)	(1,0)	
L1D -110>	(4,1)	(1,2)	(117,0)	(111,118)	(2,24)	(105,46)	(1,0)	(1,0)	(1,0)	(1,0)	(1,0)	(1,0)	(1,0)	(1,0)	(1,0)	(1,0)	
L1D -109>	(109,1)	(112,1)	(1,5)	(115,14)	(108,3)	(2,1)	(16,1)	(1,0)	(1,0)	(1,0)	(1,0)	(1,0)	(1,0)	(1,0)	(1,0)	(1,0)	
L1D -108>	(43,1)	(109,13)	(98,1)	(106,3)	(2,23)	(1,2)	(24,1)	(26,1)	(1,0)	(1,0)	(1,0)	(1,0)	(1,0)	(1,0)	(1,0)	(1,0)	
L1D -107>	(49,0)	(1,3)	(52,0)	(24,0)	(65,117)	(43,0)	(2,0)	(-19,0)	(-15,0)	(106,0)	(1,0)	(1,0)	(1,0)	(1,0)	(1,0)	(1,0)	
L1D -106>	(1,117)	(109,5)	(85,1)	(64,1)	(107,3)	(-16,1)	(1,0)	(1,0)	(1,0)	(1,0)	(1,0)	(1,0)	(1,0)	(1,0)	(1,0)	(1,0)	
L1D -105>	(113,1)	(112,1)	(7,91)	(145,0)	(146,0)	(103,0)	(1,2)	(139,0)	(2,0)	(-1,0)	(1,0)	(1,0)	(1,0)	(1,0)	(1,0)	(1,0)	
L1D -104>	(140,0)	(101,4)	(139,1)	(99,1)	(127,2)	(103,22)	(-1,13)	(145,15)	(141,2)	(142,4)	(109,66)	(102,12)	(100,2)	(130,1)	(144,22)	(143,17)	
L1D -103>	(-1,44)	(144,34)	(143,6)	(100,5)	(101,2)	(103,15)	(145,1)	(133,3)	(102,13)	(0,1)	(131,2)	(130,1)	(63,93)	(138,2)	(146,10)	(99,2)	
L1D -102>	(143,48)	(-1,16)	(133,8)	(98,1)	(145,82)	(138,8)	(137,12)	(99,13)	(103,57)	(90,6)	(139,26)	(102,20)	(100,12)	(144,34)	(130,28)	(146,53)	
L1D -101>	(140,21)	(96,3)	(136,4)	(144,10)	(145,98)	(98,1)	(-1,1)	(142,20)	(102,54)	(2,27)	(141,46)	(100,21)	(128,4)	(103,6)	(143,12)	(146,29)	
L1D -100>	(141,85)	(145,102)	(98,43)	(1,42)	(102,37)	(-1,18)	(89,47)	(104,23)	(143,19)	(101,16)	(135,28)	(142,38)	(140,14)	(95,13)	(136,1)	(96,13)	
L1D -99>	(141,39)	(101,113)	(140,17)	(142,30)	(133,6)	(145,37)	(98,7)	(100,7)	(134,5)	(104,17)	(102,9)	(146,7)	(103,16)	(139,17)	(125,7)	(95,1)	
L1D -98>	(87,1)	(95,24)	(101,43)	(145,29)	(-2,111)	(141,77)	(140,64)	(135,17)	(93,21)	(94,21)	(146,42)	(99,10)	(142,96)	(-1,14)	(143,11)	(100,35)	
L1D -97>	(95,4)	(-26,2)	(102,11)	(145,1)	(-1,111)	(142,9)	(100,6)	(1,21)	(140,18)	(104,8)	(143,6)	(99,8)	(132,2)	(141,16)	(93,6)	(138,12)	
L1D -96>	(83,1)	(85,1)	(146,0)	(93,0)	(102,0)	(101,1)	(135,0)	(131,0)	(125,0)	(-29,105)	(100,0)	(143,0)	(139,0)	(17,1)	(127,0)	(141,0)	
L1D -95>	(-29,30)	(146,4)	(141,5)	(96,4)	(90,1)	(94,4)	(125,7)	(143,11)	(123,2)	(138,5)	(147,3)	(97,7)	(104,3)	(150,96)	(91,8)	(139,6)	
L1D -94>	(50,5)	(48,1)	(-1,29)	(1,101)	(135,18)	(91,15)	(52,50)	(51,101)	(146,7)	(92,20)	(88,15)	(89,14)	(154,39)	(93,32)	(90,9)	(151,16)	
L1D -93>	(124,6)	(51,84)	(1,78)	(144,7)	(52,5)	(-1,7)	(92,13)	(154,7)	(-29,33)	(54,4)	(95,1)	(93,101)	(90,41)	(0,105)	(146,7)	(99,5)	
L1D -92>	(-1,13)	(87,1)	(150,3)	(133,6)	(130,7)	(52,4)	(151,7)	(91,15)	(146,8)	(132,13)	(89,5)	(93,36)	(90,71)	(131,12)	(51,22)	(50,23)	
L1D -91>	(43,1)	(150,47)	(93,9)	(84,12)	(90,48)	(-1,41)	(1,17)	(49,39)	(79,10)	(153,45)	(51,122)	(132,29)	(130,18)	(146,28)	(48,24)	(134,33)	
L1D -90>	(118,4)	(0,12)	(87,5)	(133,8)	(89,1)	(154,7)	(146,8)	(153,4)	(91,10)	(47,10)	(86,3)	(134,6)	(46,3)	(93,86)	(85,3)	(-1,13)	
L1D -89>	(94,31)	(131,8)	(148,10)	(130,29)	(133,55)	(84,92)	(91,14)	(132,32)	(146,36)	(51,4)	(153,14)	(1,1)	(90,25)	(85,20)	(10,8)	(-1,12)	
L1D -88>	(0,92)	(154,10)	(90,6)	(131,8)	(77,2)	(47,10)	(52,6)	(89,10)	(83,4)	(51,4)	(84,8)	(1,116)	(115,1)	(123,2)	(133,29)	(134,3)	
L1D -87>	(94,23)	(137,1)	(89,74)	(47,35)	(130,44)	(88,12)	(1,58)	(51,36)	(82,19)	(154,22)	(133,47)	(144,19)	(146,77)	(134,15)	(145,6)	(52,42)	
L1D -86>	(46,29)	(130,85)	(87,40)	(94,123)	(134,64)	(88,88)	(129,49)	(49,43)	(45,32)	(73,38)	(17,109)	(83,29)	(1,55)	(119,27)	(89,1)	(79,33)	
L1D -85>	(73,56)	(81,51)	(86,19)	(127,15)	(128,77)	(150,33)	(43,7)	(17,23)	(143,17)	(92,1)	(126,30)	(125,13)	(44,77)	(94,105)	(90,79)	(89,12)	
L1D -84>	(81,34)	(151,5)	(125,28)	(158,97)	(146,32)	(86,1)	(43,12)	(0,21)	(127,9)	(154,32)	(129,17)	(94,22)	(83,56)	(82,39)	(45,6)	(79,14)	
L1D -83>	(82,117)	(1,15)	(78,11)	(123,8)	(-1,23)	(84,9)	(138,64)	(85,1)	(154,17)	(94,4)	(81,16)	(125,9)	(72,11)	(31,65)	(124,20)	(79,16)	
L1D -82>	(93,1)	(131,2)	(82,1)	(134,7)	(-1,19)	(83,3)	(125,10)	(2,18)	(5,5)	(3,3)	(81,8)	(86,2)	(6,109)	(4,34)	(8,7)	(1,3)	
L1D -81>	(8,5)	(83,19)	(124,36)	(79,51)	(82,28)	(91,12)	(126,1)	(142,9)	(-1,49)	(123,18)	(4,9)	(76,14)	(94,8)	(125,57)	(84,13)	(78,111)	
L1D -80>	(1,8)	(124,17)	(81,16)	(123,42)	(2,38)	(131,4)	(125,67)	(31,64)	(38,7)	(75,9)	(-2,14)	(146,28)	(84,15)	(121,18)	(154,24)	(-1,1)	
L1D -79>	(61,6)	(76,36)	(19,6)	(124,20)	(118,9)	(77,15)	(83,13)	(111,73)	(146,8)	(78,18)	(81,23)	(1,107)	(-14,12)	(123,1)	(-1,23)	(37,7)	
L1D -78>	(73,25)	(1,13)	(82,1)	(-1,79)	(78,19)	(152,13)	(77,15)	(121,36)	(8,8)	(75,43)	(76,32)	(81,19)	(120,16)	(80,32)	(2,8)	(4,14)	
L1D -77>	(17,8)	(138,6)	(1,102)	(78,37)	(117,21)	(120,22)	(92,11)	(75,1)	(72,4)	(73,24)	(121,24)	(-1,23)	(118,5)	(79,77)	(82,10)	(146,14)	
L1D -76>	(154,8)	(79,13)	(50,6)	(77,9)	(75,115)	(73,72)	(134,82)	(117,32)	(74,35)	(146,1)	(41,8)	(2,8)	(-1,53)	(89,15)	(119,11)	(115,17)	
L1D -75>	(2,11)	(134,1)	(118,33)	(61,29)	(94,14)	(0,30)	(77,52)	(113,10)	(35,35)	(154,42)	(33,8)	(120,2)	(74,11)	(79,8)	(34,79)	(76,9)	
L1D -74>	(69,22)	(31,1)	(75,66)	(73,5)	(111,32)	(94,5)	(41,3)	(61,7)	(47,2)	(46,1)	(32,43)	(-1,16)	(44,1)	(76,4)	(89,2)	(43,5)	
L1D -73>	(128,94)	(21,93)	(116,113)	(-1,27)	(134,21)	(74,21)	(31,9)	(69,2)	(91,7)	(71,13)	(75,18)	(121,41)	(118,109)	(131,5)	(117,26)	(30,15)	
L1D -72>	(74,7)	(30,14)	(125,2)	(29,2)	(27,3)	(71,5)	(69,2)	(131,8)	(-1,17)	(1,93)	(73,7)	(117,12)	(67,14)	(61,12)	(89,8)	(94,16)	
L1D -71>	(153,5)	(30,9)	(118,112)	(73,85)	(132,32)	(133,22)	(31,27)	(-1,53)	(1,80)	(61,49)	(154,7)	(11,38)	(76,11)	(94,29)	(74,1)	(129,99)	
L1D -70>	(94,11)	(67,1)	(154,4)	(25,26)	(29,9)	(362,8)	(131,5)	(71,7)	(73,10)	(10,7)	(61,9)	(81,8)	(69,78)	(21,45)	(132,9)	(7,23)	
L1D -69>	(1,68)	(134,5)	(72,1)	(-14,7)	(27,20)	(43,18)	(71,2)	(61,11)	(94,12)	(131,6)	(132,3)	(21,6)	(32,0)	(126,11)	(154,2)	(130,5)	
L1D -68>	(28,16)	(8,10)	(29,1)	(69,48)	(1,19)	(26,76)	(5,3)	(2,123)	(42,6)	(94,21)	(154,6)	(43,21)	(61,48)	(71,2)	(67,12)	(130,21)	
L1D -67>	(26,6)	(25,17)	(1,23)	(6,4)	(64,2)	(128,15)	(5,1)	(66,35)	(42,15)	(94,9)	(43,20)	(122,96)	(15,95)	(75,1)	(68,1)	(9,4)	
L1D -66>	(6,16)	(128,1)	(23,1)	(43,70)	(1,9)	(42,1)	(21,74)	(64,21)	(24,57)	(4,7)	(63,14)	(5,1)	(94,14)	(62,19)	(26,4)	(65,9)	
L1D -65>	(-15,1)	(64,75)	(1,22)	(13,75)	(31,29)	(66,27)	(42,3)	(127,12)	(73,10)	(2,6)	(23,54)	(6,18)	(21,2)	(107,39)	(43,84)	(-69,18)	
L1D -64>	(22,7)	(1,91)	(61,2)	(58,2)	(-70,2)	(-20,1)	(51,1)	(57,1)	(-16,1)	(65,3)	(62,2)	(15,4)	(59,2)	(43,3)	(72,1)	(45,2)	
L1D -63>	(-1,27)	(55,7)	(3,14)	(1,29)	(61,15)	(59,14)	(63,6)	(21,57)	(-87,11)	(43,69)	(58,15)	(-89,4)	(42,6)	(-69,1)	(62,27)	(64,6)	
L1D -62>	(1,5)	(59,44)	(20,96)	(-2,36)	(61,27)	(42,20)	(45,6)	(62,27)	(43,80)	(53,11)	(22,1)	(13,18)	(57,25)	(58,17)	(44,7)	(60,21)	
L1D -61>	(53,17)	(1,9)	(43,34)	(19,108)	(60,30)	(42,20)	(-93,8)	(18,1)	(8,12)	(58,26)	(59,91)	(-1,18)	(50,14)	(52,6)	(46,7)	(55,10)	
L1D -60>	(59,80)	(40,1)	(61,68)	(18,12)	(56,24)	(62,90)	(58,68)	(57,34)	(64,34)	(-2,26)	(67,12)	(8,11)	(63,45)	(60,31)	(-94,19)	(-1,47)	
L1D -59>	(17,100)	(60,31)	(61,94)	(58,56)	(-1,54)	(57,39)	(47,8)	(51,21)	(1,6)	(44,14)	(-4,45)	(42,25)	(59,21)	(64,24)	(55,1)	(43,74)	
L1D -58>	(16,101)	(60,9)	(43,23)	(57,13)	(-1,10)	(44,24)	(54,13)	(56,16)	(45,1)	(53,6)	(55,9)	(59,31)	(-2,3)	(15,5)	(42,8)	(61,10)	
L1D -57>	(15,112)	(56,27)	(-1,11)	(61,61)	(43,63)	(54,23)	(3,4)	(59,22)	(42,51)	(14,11)	(58,1)	(60,20)	(52,16)	(53,6)	(55,41)	(16,35)	
L1D -56>	(14,46)	(43,71)	(55,36)	(-2,8)	(44,14)	(51,6)	(42,16)	(54,13)	(41,1)	(56,13)	(61,19)	(47,2)	(59,14)	(1,11)	(60,12)	(57,4)	
L1D -55>	(13,92)	(42,17)	(-2,5)	(48,1)	(15,4)	(53,41)	(59,8)	(54,12)	(12,3)	(14,13)	(58,7)	(-3,2)	(57,5)	(43,75)	(11,10)	(60,12)	
L1D -54>	(59,22)	(10,41)	(1,88)	(55,10)	(41,1)	(53,15)	(12,62)	(2,10)	(42,35)	(58,10)	(11,49)	(57,8)	(43,50)	(4,29)	(60,42)	(56,15)	
L1D -53>	(55,4)	(51,29)	(11,65)	(1,7)	(-185,1)	(12,6)	(-94,3)	(9,3)	(52,7)	(10,27)	(42,10)	(43,37)	(-40,7)	(7,2)	(60,12)	(59,5)	
L1D -52>	(39,9)	(-1,77)	(44,1)	(10,105)	(50,24)	(51,41)	(89,4)	(60,3)	(93,8)	(43,26)	(94,13)	(9,6)	(92,14)	(-5,5)	(7,17)	(1,6)	
L1D -51>	(-1,24)	(53,7)	(52,24)	(9,33)	(39,62)	(50,30)	(1,6)	(51,50)	(58,1)	(49,26)	(40,7)	(-4,35)	(42,22)	(56,34)	(43,72)	(92,7)	
L1D -50>	(51,77)	(53,16)	(55,1)	(8,35)	(2,20)	(94,18)	(49,14)	(-1,11)	(42,36)	(43,42)	(59,16)	(90,14)	(93,8)	(32,1)	(48,25)	(50,59)	
L1D -49>	(44,28)	(1,29)	(6,21)	(2,45)	(50,38)	(5,44)	(60,1)	(49,116)	(9,15)	(93,18)	(-1,12)	(51,13)	(42,9)	(46,10)	(7,38)	(43,64)	
L1D -48>	(-1,31)	(3,61)	(42,23)	(2,47)	(5,16)	(8,72)	(52,24)	(51,31)	(43,20)	(6,50)	(46,12)	(53,9)	(47,28)	(48,124)	(31,1)	(50,35)	
L1D -47>	(51,15)	(46,12)	(-1,24)	(5,37)	(94,5)	(2,55)	(3,51)	(49,11)	(44,22)	(50,31)	(15,10)	(41,25)	(47,111)	(43,75)	(4,18)	(29,1)	
L1D -46>	(48,15)	(43,30)	(44,27)	(-1,49)	(1,22)	(4,18)	(42,38)	(45,24)	(49,16)	(2,40)	(41,65)	(40,103)	(31,17)	(-88,1)	(12,35)	(46,86)	
L1D -45>	(30,15)	(40,37)	(13,6)	(2,31)	(-1,23)	(50,22)	(31,1)	(47,5)	(43,40)	(45,65)	(44,16)	(41,45)	(3,27)	(48,13)	(-3,2)	(34,8)	
L1D -44>	(38,13)	(29,14)	(46,1)	(2,12)	(43,11)	(-4,9)	(-74,8)	(33,12)	(-1,35)	(25,10)	(44,112)	(42,23)	(40,57)	(41,31)	(37,9)	(39,12)	
L1D -43>	(2,20)	(44,19)	(-1,52)	(1,52)	(59,1)	(42,120)	(39,56)	(41,88)	(31,18)	(6,43)	(38,42)	(43,43)	(28,30)	(35,18)	(36,16)	(40,104)	
L1D -42>	(-104,1)	(-2,38)	(39,42)	(43,61)	(-3,23)	(41,86)	(40,84)	(48,17)	(54,16)	(35,14)	(38,31)	(37,21)	(44,56)	(42,19)	(47,18)	(1,26)	
L1D -41>	(-12,1)	(47,26)	(10,5)	(50,11)	(34,7)	(42,20)	(1,26)	(41,19)	(38,13)	(40,105)	(43,41)	(27,11)	(2,34)	(-1,33)	(49,26)	(45,22)	
L1D -40>	(60,1)	(42,4)	(39,112)	(-1,10)	(46,3)	(43,36)	(61,2)	(41,4)	(38,2)	(44,20)	(49,2)	(45,10)	(1,8)	(3,2)	(40,4)	(52,2)	
L1D -39>	(38,95)	(-1,12)	(48,1)	(4,1)	(6,1)	(42,2)	(-3,2)	(41,2)	(39,4)	(46,1)	(27,1)	(29,1)	(44,1)	(-5,1)	(-7,1)	(1,1)	
L1D -38>	(42,40)	(60,1)	(-1,59)	(-4,21)	(37,19)	(41,45)	(36,17)	(4,11)	(39,33)	(47,8)	(38,103)	(-3,14)	(-2,36)	(43,25)	(40,20)	(46,12)	
L1D -37>	(-2,17)	(38,17)	(36,23)	(-52,10)	(-1,34)	(5,13)	(1,11)	(42,31)	(31,39)	(-5,7)	(39,20)	(57,13)	(41,25)	(34,1)	(40,40)	(37,116)	
L1D -36>	(-1,29)	(41,29)	(35,21)	(94,16)	(39,14)	(37,12)	(7,9)	(-6,17)	(38,15)	(2,1)	(42,25)	(36,97)	(43,13)	(-3,13)	(52,15)	(44,10)	
L1D -35>	(39,11)	(41,23)	(36,14)	(-14,13)	(52,6)	(-5,9)	(37,9)	(6,15)	(35,77)	(-1,9)	(42,16)	(-6,7)	(40,18)	(34,7)	(-102,1)	(38,14)	
L1D -34>	(-6,5)	(53,11)	(-8,8)	(35,7)	(-1,17)	(41,18)	(45,1)	(-2,7)	(42,13)	(34,86)	(37,11)	(-7,17)	(33,5)	(36,5)	(38,9)	(54,10)	
L1D -33>	(32,8)	(-9,10)	(41,24)	(34,8)	(54,4)	(35,11)	(33,70)	(-1,16)	(42,21)	(60,1)	(94,10)	(36,9)	(-3,3)	(43,5)	(44,8)	(55,5)	
L1D -32>	(1,17)	(42,8)	(-8,7)	(20,9)	(33,7)	(40,16)	(28,113)	(41,25)	(65,1)	(34,6)	(-1,54)	(32,93)	(31,43)	(-9,5)	(-11,3)	(-10,17)	
L1D -31>	(30,14)	(-2,33)	(-11,20)	(32,15)	(31,107)	(5,31)	(2,27)	(41,28)	(-96,1)	(-9,35)	(8,77)	(-1,45)	(6,13)	(4,21)	(20,25)	(33,28)	
L1D -30>	(32,1)	(33,1)	(41,1)	(-11,1)	(19,97)	(5,0)	(27,0)	(3,10)	(7,3)	(-1,10)	(364,0)	(30,1)	(74,0)	(6,2)	(55,0)	(-12,1)	
L1D -29>	(30,5)	(2,16)	(55,1)	(40,3)	(-12,6)	(31,11)	(28,9)	(4,4)	(-11,8)	(41,17)	(14,3)	(32,7)	(29,54)	(-1,16)	(6,35)	(5,114)	
L1D -28>	(34,68)	(1,30)	(41,31)	(29,25)	(27,14)	(-1,23)	(5,18)	(6,20)	(-13,12)	(-2,1)	(-12,12)	(-14,11)	(28,104)	(2,22)	(3,32)	(31,42)	
L1D -27>	(1,3)	(29,6)	(2,54)	(-3,4)	(26,7)	(27,35)	(41,1)	(39,1)	(6,7)	(-1,10)	(28,4)	(3,85)	(4,46)	(-15,5)	(8,39)	(5,15)	
L1D -26>	(67,5)	(25,8)	(2,9)	(27,3)	(3,5)	(-16,2)	(-6,6)	(-1,6)	(29,3)	(56,0)	(4,66)	(41,2)	(6,10)	(26,25)	(22,7)	(-2,5)	
L1D -25>	(41,13)	(2,12)	(39,1)	(24,14)	(-11,18)	(9,115)	(43,3)	(5,13)	(12,14)	(25,27)	(4,25)	(22,12)	(-3,39)	(6,20)	(-1,15)	(7,11)	
L1D -24>	(8,92)	(23,3)	(1,17)	(41,2)	(6,2)	(43,1)	(-2,8)	(24,32)	(5,3)	(9,12)	(3,4)	(-60,1)	(2,3)	(-1,7)	(42,1)	(25,3)	
L1D -23>	(5,9)	(8,77)	(17,11)	(0,6)	(4,7)	(22,10)	(6,12)	(-2,4)	(19,22)	(23,16)	(1,8)	(18,4)	(-1,6)	(43,1)	(24,7)	(-4,11)	
L1D -22>	(3,12)	(5,1)	(-1,9)	(6,21)	(22,20)	(21,11)	(19,11)	(20,22)	(17,18)	(23,94)	(25,55)	(18,8)	(30,89)	(-4,16)	(24,23)	(16,41)	
L1D -21>	(6,19)	(-1,70)	(15,77)	(16,19)	(-2,17)	(17,13)	(12,1)	(30,2)	(29,116)	(21,10)	(1,4)	(-11,48)	(-5,12)	(20,37)	(43,1)	(18,5)	
L1D -20>	(-37,2)	(14,2)	(-42,2)	(15,11)	(-4,5)	(6,14)	(17,1)	(-2,6)	(12,3)	(20,82)	(5,20)	(28,9)	(16,3)	(-10,31)	(1,8)	(4,45)	
L1D -19>	(1,22)	(-60,4)	(2,45)	(18,8)	(-13,35)	(13,10)	(4,91)	(-42,12)	(15,14)	(16,11)	(3,11)	(5,2)	(14,10)	(6,50)	(7,8)	(-4,4)	
L1D -18>	(-5,25)	(19,16)	(1,31)	(6,13)	(-3,21)	(22,1)	(17,10)	(3,22)	(14,8)	(-4,15)	(-6,39)	(2,10)	(15,5)	(31,41)	(4,77)	(5,7)	
L1D -17>	(22,12)	(2,5)	(9,79)	(1,28)	(18,5)	(19,1)	(6,2)	(15,1)	(21,2)	(4,15)	(14,23)	(10,1)	(-4,1)	(8,16)	(17,82)	(-2,1)	
L1D -16>	(6,19)	(-3,1)	(9,112)	(15,8)	(5,12)	(17,9)	(12,6)	(-9,23)	(3,20)	(-5,8)	(-42,5)	(14,9)	(1,47)	(11,9)	(26,7)	(4,38)	
L1D -15>	(4,82)	(-9,53)	(5,37)	(9,27)	(6,89)	(12,38)	(13,25)	(11,45)	(10,23)	(15,6)	(-42,13)	(2,7)	(1,27)	(14,21)	(-8,9)	(24,1)	
L1D -14>	(1,32)	(22,1)	(23,7)	(9,106)	(43,14)	(-5,68)	(5,53)	(12,14)	(8,30)	(11,20)	(3,26)	(-42,31)	(4,126)	(10,9)	(6,40)	(2,12)	
L1D -13>	(1,15)	(28,42)	(2,28)	(-5,19)	(10,19)	(-4,1)	(6,98)	(8,65)	(22,8)	(-42,13)	(24,4)	(5,54)	(11,6)	(4,101)	(3,29)	(12,7)	
L1D -12>	(10,32)	(5,98)	(7,16)	(-42,46)	(1,89)	(-10,34)	(-3,34)	(6,112)	(-18,33)	(4,90)	(2,37)	(3,1)	(13,16)	(11,28)	(8,43)	(43,13)	
L1D -11>	(36,10)	(10,8)	(28,38)	(8,10)	(2,16)	(1,17)	(6,54)	(18,13)	(-3,8)	(5,22)	(3,25)	(15,9)	(14,1)	(20,9)	(-42,32)	(4,118)	
L1D -10>	(12,1)	(-12,1)	(14,18)	(3,14)	(28,44)	(-10,1)	(6,21)	(5,9)	(8,2)	(4,15)	(9,10)	(-40,3)	(-42,5)	(18,4)	(1,17)	(2,86)	
L1D -9>	(10,5)	(5,2)	(13,1)	(15,2)	(1,9)	(16,1)	(-7,7)	(17,2)	(-8,101)	(3,0)	(2,2)	(6,4)	(4,3)	(-50,0)	(14,0)	(9,13)	
L1D -8>	(4,6)	(1,11)	(2,7)	(14,32)	(-15,1)	(7,4)	(43,2)	(-42,1)	(17,100)	(9,56)	(16,1)	(-9,16)	(8,17)	(0,7)	(-3,4)	(5,3)	
L1D -7>	(-7,9)	(1,29)	(10,17)	(8,66)	(9,30)	(5,27)	(-1,5)	(7,30)	(-10,1)	(13,20)	(14,18)	(4,24)	(6,46)	(-42,10)	(11,11)	(12,19)	
L1D -6>	(24,3)	(-3,71)	(18,4)	(-2,23)	(-8,118)	(-16,1)	(10,23)	(1,24)	(8,15)	(-7,6)	(-10,11)	(-1,9)	(4,11)	(5,24)	(-15,9)	(-9,11)	
L1D -5>	(24,83)	(-5,11)	(-3,78)	(-11,10)	(4,43)	(-14,6)	(3,18)	(-10,28)	(-15,31)	(2,9)	(-8,1)	(11,16)	(-1,21)	(8,27)	(-13,6)	(-7,13)	
L1D -4>	(17,1)	(5,15)	(8,23)	(1,49)	(-3,43)	(-17,14)	(-15,79)	(3,56)	(-22,35)	(-12,19)	(-1,26)	(-6,56)	(-11,65)	(-5,34)	(-30,14)	(2,18)	
L1D -3>	(-15,29)	(-6,30)	(7,72)	(6,1)	(2,29)	(1,88)	(13,42)	(-5,20)	(-12,14)	(-4,19)	(-2,16)	(-3,13)	(-11,26)	(-13,10)	(-1,14)	(-7,23)	
L1D -2>	(-1,33)	(0,83)	(-7,56)	(-19,30)	(-11,33)	(-14,17)	(-2,30)	(1,105)	(-4,40)	(-13,41)	(-3,57)	(-5,71)	(-15,64)	(-6,34)	(-8,21)	(2,1)	
L1D -1>	(2,1)	(123,3)	(-41,1)	(40,1)	(-1,68)	(-10,6)	(-20,2)	(-14,2)	(1,12)	(-6,7)	(-15,5)	(-3,15)	(0,15)	(-4,6)	(-8,3)	(-11,10)	
L1D 0>	(0,115)	(1,23)	(-39,0)	(2,62)	(8,12)	(21,0)	(-3,1)	(-2,0)	(4,6)	(11,1)	(33,0)	(5,3)	(-15,0)	(-1,3)	(3,4)	(-511,0)	
L1D 1>	(1,73)	(7,7)	(8,14)	(-8,1)	(0,12)	(2,20)	(16,9)	(-2,7)	(9,2)	(-21,2)	(3,40)	(-96,1)	(5,7)	(-1,25)	(-18,4)	(4,20)	
L1D 2>	(1,30)	(2,124)	(0,74)	(-2,6)	(-42,2)	(3,46)	(23,9)	(4,46)	(43,3)	(6,24)	(-6,24)	(8,9)	(21,6)	(5,4)	(29,1)	(-21,8)	
L1D 3>	(-1,43)	(-10,19)	(1,30)	(2,95)	(-7,1)	(-3,11)	(3,50)	(-6,3)	(21,7)	(7,5)	(6,16)	(4,8)	(5,8)	(-4,6)	(0,4)	(8,9)	
L1D 4>	(-5,33)	(-9,59)	(1,68)	(9,1)	(-4,19)	(29,22)	(-3,21)	(3,55)	(6,65)	(2,114)	(-1,19)	(8,28)	(24,21)	(0,27)	(10,10)	(4,31)	
L1D 5>	(-1,11)	(2,43)	(24,10)	(-11,12)	(11,15)	(3,52)	(-2,16)	(22,7)	(-6,17)	(12,5)	(1,35)	(19,5)	(-5,50)	(-3,1)	(6,100)	(18,8)	
L1D 6>	(2,78)	(-1,14)	(8,21)	(-116,50)	(-2,4)	(-14,11)	(7,17)	(-18,1)	(12,53)	(1,72)	(3,7)	(4,4)	(-4,5)	(0,9)	(6,16)	(-6,17)	
L1D 7>	(2,82)	(-1,12)	(-6,42)	(9,1)	(-4,26)	(1,26)	(3,7)	(5,2)	(-2,15)	(-42,3)	(-17,5)	(-3,7)	(-7,20)	(-5,5)	(-10,11)	(-13,6)	
L1D 8>	(-9,46)	(-3,2)	(-13,8)	(1,6)	(7,1)	(8,23)	(-7,4)	(-6,1)	(-17,104)	(-27,6)	(-1,6)	(3,4)	(-4,3)	(-2,3)	(-8,21)	(6,1)	
L1D 9>	(0,10)	(5,12)	(-6,4)	(-4,3)	(-11,1)	(-3,4)	(8,108)	(-9,2)	(-17,2)	(-12,1)	(15,1)	(-8,4)	(-7,2)	(-1,4)	(-2,4)	(-10,3)	
L1D 10>	(-42,16)	(7,1)	(-8,32)	(-4,50)	(3,127)	(-5,6)	(-41,6)	(-3,86)	(32,9)	(-6,32)	(-9,17)	(-1,42)	(-10,18)	(-7,7)	(41,6)	(-2,11)	
L1D 11>	(41,2)	(-10,6)	(-4,90)	(-42,8)	(-1,45)	(42,2)	(-12,1)	(-9,5)	(32,3)	(-3,18)	(-17,27)	(-5,3)	(-8,9)	(-2,16)	(-6,20)	(55,2)	
L1D 12>	(-5,27)	(-7,1)	(-12,5)	(-54,1)	(-3,3)	(-8,10)	(-9,3)	(-1,11)	(13,74)	(-42,4)	(-10,7)	(-16,3)	(-2,15)	(-6,9)	(-11,7)	(-4,9)	
L1D 13>	(-2,21)	(-10,33)	(-4,49)	(-9,9)	(-12,25)	(-1,9)	(6,26)	(-16,41)	(-19,3)	(-11,20)	(-8,74)	(-3,7)	(14,1)	(-42,5)	(-6,35)	(-23,8)	
L1D 14>	(41,2)	(6,51)	(-12,8)	(-6,122)	(-10,2)	(-42,5)	(-13,6)	(-9,1)	(-5,6)	(-17,24)	(29,3)	(-3,6)	(-7,3)	(-11,4)	(-2,10)	(-1,5)	
L1D 15>	(-5,36)	(-23,63)	(-12,31)	(-10,43)	(-15,73)	(-13,25)	(-3,32)	(-42,26)	(-25,61)	(-11,49)	(-18,21)	(32,4)	(-24,14)	(-4,51)	(-17,1)	(-191,4)	
L1D 16>	(-9,105)	(-3,5)	(-13,9)	(-42,11)	(-14,19)	(41,8)	(-25,16)	(-4,28)	(-12,3)	(-1,94)	(31,2)	(-15,6)	(-8,10)	(-2,6)	(-11,1)	(-6,10)	
L1D 17>	(-8,24)	(-14,0)	(0,0)	(-21,0)	(-13,1)	(41,0)	(-9,109)	(-16,0)	(-17,12)	(-45,0)	(8,3)	(-15,1)	(6,1)	(28,0)	(-42,0)	(-2,3)	
L1D 18>	(-1,21)	(-25,17)	(41,1)	(-42,61)	(-5,4)	(-14,99)	(-6,9)	(-23,62)	(-15,73)	(-13,20)	(-17,44)	(-60,3)	(-2,13)	(-3,82)	(-16,50)	(-11,2)	
L1D 19>	(-18,69)	(-13,7)	(-42,24)	(12,1)	(-2,12)	(13,80)	(-16,4)	(-1,14)	(-3,86)	(-22,45)	(10,37)	(6,5)	(-15,14)	(-4,21)	(8,25)	(-17,3)	
L1D 20>	(0,41)	(-20,90)	(-42,13)	(-21,7)	(-18,13)	(-3,17)	(-1,21)	(13,1)	(-5,16)	(-6,15)	(1,17)	(-15,8)	(-19,20)	(-17,11)	(-16,26)	(-2,12)	
L1D 21>	(-19,107)	(-22,16)	(-17,107)	(-18,62)	(-2,63)	(-13,125)	(-20,2)	(-6,7)	(-15,22)	(-1,19)	(1,10)	(-3,27)	(-42,28)	(-4,29)	(-14,13)	(-16,32)	
L1D 22>	(-18,99)	(-60,1)	(-1,13)	(-42,18)	(-19,12)	(-5,11)	(-23,16)	(-3,15)	(-20,13)	(-2,6)	(1,7)	(-17,27)	(-4,19)	(-7,4)	(-21,6)	(8,7)	
L1D 23>	(-15,22)	(-4,32)	(2,119)	(-24,20)	(-19,80)	(-42,24)	(1,1)	(-18,49)	(-23,95)	(-2,22)	(-6,9)	(-17,77)	(-3,12)	(-1,9)	(-20,17)	(-21,26)	
L1D 24>	(1,114)	(-15,69)	(-18,25)	(-25,15)	(-8,21)	(3,23)	(-42,24)	(-3,2)	(-41,3)	(-23,65)	(-32,15)	(-22,40)	(-19,43)	(-21,52)	(-1,63)	(-5,18)	
L1D 25>	(-21,99)	(-26,35)	(-40,34)	(15,18)	(-22,1)	(-20,50)	(-2,88)	(-19,19)	(-4,37)	(-23,21)	(2,25)	(-10,8)	(16,9)	(-18,26)	(-24,112)	(-42,43)	
L1D 26>	(10,1)	(-28,10)	(-21,10)	(-32,2)	(-41,25)	(-1,8)	(0,8)	(-22,23)	(-23,22)	(-27,46)	(-42,112)	(-24,5)	(-20,45)	(-5,4)	(-25,5)	(-3,71)	
L1D 27>	(-28,37)	(-25,19)	(-24,12)	(-2,1)	(-4,39)	(-26,14)	(-30,9)	(12,9)	(1,12)	(7,9)	(-42,105)	(0,5)	(-40,24)	(-41,21)	(-23,24)	(-29,8)	
L1D 28>	(-30,122)	(-3,1)	(-42,19)	(-22,1)	(-29,9)	(-41,1)	(-25,1)	(42,1)	(-26,5)	(-40,3)	(-21,3)	(-33,2)	(-5,3)	(11,1)	(-1,3)	(12,1)	
L1D 29>	(-42,20)	(-21,100)	(-24,1)	(-22,5)	(42,1)	(43,1)	(-30,9)	(11,2)	(-4,7)	(13,2)	(-6,4)	(0,2)	(1,2)	(-26,1)	(-41,2)	(-40,4)	
L1D 30>	(9,7)	(-21,8)	(-39,20)	(-31,21)	(-41,6)	(0,6)	(-1,9)	(-32,3)	(-42,83)	(11,1)	(-26,75)	(-24,35)	(-15,14)	(-27,8)	(-40,17)	(-3,3)	
L1D 31>	(-32,14)	(-6,11)	(-16,77)	(-26,2)	(-30,1)	(-11,7)	(-27,1)	(1,6)	(10,7)	(9,4)	(-41,8)	(-12,34)	(-42,42)	(2,6)	(-40,14)	(0,8)	
L1D 32>	(10,14)	(-25,18)	(19,3)	(-27,67)	(-29,30)	(-31,28)	(0,7)	(-42,102)	(9,1)	(-26,3)	(-33,29)	(-1,41)	(60,3)	(-36,6)	(-136,3)	(1,9)	
L1D 33>	(-39,3)	(-1,48)	(2,9)	(59,3)	(37,3)	(5,5)	(-34,32)	(-37,1)	(-42,96)	(-38,3)	(-41,20)	(-40,24)	(4,5)	(8,8)	(-35,3)	(24,11)	
L1D 34>	(1,34)	(-42,104)	(-35,55)	(0,5)	(5,10)	(12,1)	(-41,18)	(2,7)	(7,13)	(-2,10)	(-38,3)	(4,3)	(-36,2)	(-40,15)	(22,2)	(-39,3)	
L1D 35>	(0,6)	(-42,117)	(-60,8)	(5,10)	(17,1)	(-36,45)	(-39,5)	(-37,8)	(-14,2)	(-40,21)	(2,18)	(1,15)	(6,9)	(13,2)	(10,7)	(4,17)	
L1D 36>	(2,5)	(-39,4)	(-42,87)	(5,8)	(-2,27)	(-7,3)	(0,8)	(-11,3)	(-41,16)	(-37,38)	(-40,11)	(10,10)	(-38,6)	(3,3)	(12,1)	(1,2)	
L1D 37>	(-42,74)	(-39,21)	(1,10)	(4,12)	(-44,7)	(6,9)	(2,1)	(-40,29)	(-41,24)	(-12,8)	(-43,5)	(0,11)	(-38,55)	(8,5)	(-8,3)	(5,7)	
L1D 38>	(-43,5)	(-19,1)	(-39,95)	(13,1)	(-12,2)	(-3,1)	(-42,9)	(-10,2)	(0,1)	(-14,1)	(-7,1)	(-11,1)	(-1,2)	(-36,1)	(-41,5)	(-40,5)	
L1D 39>	(-41,4)	(-17,1)	(13,3)	(2,2)	(-42,24)	(-14,3)	(-13,3)	(-40,124)	(-10,2)	(-47,1)	(-5,1)	(-7,2)	(3,1)	(-4,1)	(-43,5)	(-44,6)	
L1D 40>	(-15,39)	(1,18)	(-42,89)	(18,1)	(-41,84)	(-46,28)	(-43,43)	(-11,20)	(-1,11)	(0,4)	(-58,10)	(-45,24)	(-3,12)	(-44,27)	(-12,6)	(-2,12)	
L1D 41>	(-15,13)	(-45,12)	(3,1)	(-8,7)	(-12,14)	(-42,107)	(-11,13)	(-13,6)	(-9,7)	(-7,5)	(-2,15)	(-3,18)	(-43,42)	(-44,26)	(-1,59)	(-6,8)	
L1D 42>	(-60,3)	(-46,6)	(-42,20)	(-43,66)	(-3,5)	(10,4)	(-7,6)	(-9,9)	(-1,26)	(-2,36)	(-4,4)	(-40,15)	(-15,6)	(30,15)	(32,1)	(-94,5)	
L1D 43>	(21,1)	(-40,58)	(-41,15)	(3,15)	(-42,105)	(-44,11)	(4,12)	(9,6)	(6,8)	(2,9)	(5,15)	(1,13)	(0,9)	(-34,8)	(8,19)	(-35,5)	
L1D 44>	(6,1)	(-45,16)	(1,5)	(-60,2)	(-46,7)	(-42,112)	(-44,51)	(-40,28)	(0,6)	(-43,11)	(-4,6)	(-1,16)	(-41,12)	(-118,5)	(11,3)	(2,13)	
L1D 45>	(-60,3)	(-63,2)	(1,6)	(-42,88)	(-44,4)	(5,2)	(-4,2)	(9,1)	(-1,2)	(2,2)	(-41,4)	(-40,11)	(16,1)	(-2,6)	(-46,11)	(-5,2)	
L1D 46>	(-39,3)	(-47,16)	(-46,1)	(-42,115)	(0,7)	(-41,4)	(32,2)	(2,20)	(-7,5)	(-1,21)	(6,9)	(-60,5)	(-45,4)	(-3,2)	(-2,17)	(-43,18)	
L1D 47>	(-2,5)	(4,2)	(-42,71)	(-60,7)	(-46,3)	(6,2)	(20,0)	(-43,6)	(-3,5)	(-44,1)	(1,18)	(-1,4)	(-126,4)	(0,4)	(-4,2)	(-48,14)	
L1D 48>	(-60,6)	(-49,24)	(-13,4)	(-4,3)	(-44,19)	(-42,101)	(5,1)	(-1,26)	(8,3)	(-45,15)	(-47,9)	(-43,8)	(0,6)	(-41,2)	(-2,25)	(-46,2)	
L1D 49>	(-60,15)	(-6,4)	(-42,124)	(-15,2)	(-146,2)	(-1,11)	(-5,7)	(-50,22)	(-11,1)	(-4,3)	(1,6)	(-2,13)	(0,8)	(7,7)	(-43,11)	(-3,17)	
L1D 50>	(-60,5)	(-3,5)	(2,1)	(1,11)	(40,2)	(-44,2)	(-1,6)	(-42,112)	(6,8)	(-2,7)	(-45,6)	(-48,7)	(-51,29)	(-47,2)	(-6,2)	(-54,2)	
L1D 51>	(-60,10)	(-42,82)	(43,2)	(40,2)	(-4,2)	(-55,6)	(-52,48)	(-12,7)	(42,14)	(1,1)	(-48,7)	(-8,2)	(-1,4)	(-126,4)	(4,2)	(-50,3)	
L1D 52>	(-60,4)	(-1,14)	(-42,107)	(-49,1)	(-14,2)	(4,1)	(-9,6)	(-43,10)	(-53,6)	(-3,6)	(-46,3)	(-8,2)	(-2,7)	(-7,3)	(-52,4)	(-50,2)	
L1D 53>	(-60,8)	(-43,13)	(-42,121)	(-10,12)	(-16,2)	(-1,4)	(7,1)	(-2,3)	(-91,2)	(4,1)	(-51,1)	(-61,2)	(6,8)	(-8,1)	(2,5)	(-52,4)	
L1D 54>	(-60,9)	(-42,79)	(-11,11)	(-8,2)	(2,1)	(3,1)	(-63,2)	(-19,3)	(-9,2)	(1,1)	(-2,4)	(10,2)	(32,1)	(-52,2)	(-1,13)	(5,1)	
L1D 55>	(-5,1)	(-44,1)	(-42,81)	(-12,6)	(-54,9)	(-1,7)	(-2,4)	(-3,6)	(-11,1)	(-60,3)	(-43,1)	(-107,1)	(-144,1)	(-45,2)	(3,1)	(-65,4)	
L1D 56>	(2,13)	(-60,5)	(-8,2)	(15,1)	(-42,110)	(-13,17)	(-67,3)	(-2,5)	(-11,4)	(-1,17)	(-52,11)	(-54,2)	(1,4)	(-68,2)	(6,4)	(-3,2)	
L1D 57>	(-60,12)	(-42,117)	(-7,3)	(-1,14)	(-43,3)	(-12,11)	(-14,4)	(-20,5)	(-9,3)	(-52,13)	(-55,1)	(-2,11)	(-58,8)	(-11,3)	(-15,3)	(-61,2)	
L1D 58>	(-60,44)	(-131,1)	(-42,127)	(-15,20)	(-56,9)	(-59,25)	(-152,14)	(-3,8)	(-8,8)	(-1,32)	(-61,12)	(-13,12)	(-2,21)	(-14,12)	(-50,7)	(-62,6)	
L1D 59>	(-60,46)	(-6,3)	(-11,11)	(-42,72)	(-62,7)	(-44,2)	(-16,5)	(-2,8)	(4,1)	(-3,7)	(-63,6)	(-1,16)	(-15,3)	(-61,10)	(-13,6)	(-14,4)	
L1D 60>	(-154,20)	(-60,57)	(-6,1)	(-12,2)	(-17,17)	(-4,19)	(-13,6)	(-42,114)	(-3,10)	(-16,13)	(-2,35)	(-15,11)	(-10,7)	(-59,11)	(-61,7)	(-1,42)	
L1D 61>	(-60,29)	(-42,98)	(-18,20)	(-1,15)	(17,15)	(-59,13)	(8,8)	(-56,9)	(2,4)	(9,3)	(10,4)	(-54,11)	(-47,6)	(-15,1)	(-58,15)	(1,24)	
L1D 62>	(-1,17)	(-60,65)	(-43,1)	(-42,35)	(-19,9)	(4,8)	(-41,4)	(25,1)	(27,2)	(5,5)	(17,3)	(-58,1)	(0,4)	(1,4)	(21,2)	(-59,14)	
L1D 63>	(-60,123)	(-59,5)	(-20,7)	(-42,92)	(-93,3)	(-62,10)	(4,10)	(-43,19)	(-64,1)	(-2,11)	(-6,11)	(-1,5)	(3,14)	(-61,8)	(-17,2)	(8,7)	
L1D 64>	(1,10)	(-60,59)	(-133,1)	(-42,66)	(-21,19)	(-61,6)	(-154,4)	(-41,24)	(2,21)	(-62,9)	(-1,9)	(-59,14)	(-63,4)	(-6,3)	(3,7)	(-4,4)	
L1D 65>	(-60,17)	(-153,1)	(-61,1)	(-42,65)	(-22,6)	(-55,1)	(-4,2)	(-64,121)	(1,3)	(-59,1)	(-20,2)	(-2,7)	(-1,9)	(-69,1)	(-21,3)	(-62,1)	
L1D 66>	(-60,60)	(-59,1)	(-6,4)	(-65,22)	(-150,5)	(-42,122)	(-23,33)	(-64,8)	(-3,3)	(-2,3)	(-62,12)	(-63,12)	(-1,11)	(-39,11)	(-41,16)	(61,10)	
L1D 67>	(-60,46)	(42,2)	(-42,121)	(-20,2)	(-52,1)	(-63,2)	(-4,4)	(61,3)	(-24,12)	(-43,2)	(0,1)	(-2,3)	(66,1)	(1,6)	(-64,1)	(-3,3)	
L1D 68>	(-60,38)	(-42,76)	(-61,1)	(-25,6)	(-1,5)	(-67,1)	(-2,2)	(-22,0)	(-66,4)	(1,0)	(-59,1)	(-150,2)	(-148,1)	(-63,0)	(-23,1)	(-24,1)	
L1D 69>	(-39,1)	(-60,32)	(-25,0)	(-42,89)	(5,5)	(1,6)	(-8,1)	(-66,3)	(-26,5)	(-41,0)	(42,9)	(2,8)	(3,3)	(-1,8)	(-68,1)	(58,0)	
L1D 70>	(-60,25)	(-42,115)	(2,1)	(-1,4)	(-27,2)	(24,2)	(-71,7)	(62,1)	(-61,4)	(-4,1)	(-9,3)	(-44,2)	(-41,1)	(-26,5)	(-2,2)	(-57,1)	
L1D 71>	(59,1)	(-10,6)	(-60,27)	(-42,97)	(-59,1)	(-43,4)	(-17,1)	(-8,2)	(-27,1)	(-72,6)	(-41,2)	(-70,1)	(63,1)	(-2,3)	(-69,2)	(-61,4)	
L1D 72>	(-60,90)	(-39,32)	(-73,9)	(-11,13)	(-1,15)	(6,8)	(-42,55)	(58,1)	(1,5)	(-55,4)	(-75,1)	(-71,20)	(60,5)	(-61,3)	(-18,7)	(3,2)	
L1D 73>	(-60,69)	(43,7)	(-40,24)	(-43,1)	(2,9)	(-42,98)	(-1,13)	(1,37)	(-12,4)	(-74,113)	(-71,6)	(55,3)	(-83,6)	(-2,5)	(-22,4)	(60,5)	
L1D 74>	(-60,108)	(-42,38)	(-13,10)	(-12,3)	(-23,3)	(1,39)	(44,5)	(-24,3)	(-75,94)	(42,1)	(0,2)	(-55,46)	(2,11)	(-10,4)	(-61,8)	(-1,26)	
L1D 75>	(25,7)	(15,23)	(-60,123)	(1,39)	(-1,103)	(-42,73)	(-76,84)	(-14,15)	(0,23)	(-25,9)	(2,41)	(-41,62)	(19,12)	(-2,1)	(43,88)	(40,60)	
L1D 76>	(-60,67)	(-15,17)	(1,19)	(40,58)	(-42,37)	(2,28)	(-77,22)	(39,35)	(3,7)	(18,6)	(42,1)	(-2,11)	(41,14)	(6,9)	(-13,2)	(-74,8)	
L1D 77>	(3,23)	(1,14)	(-60,64)	(-16,12)	(-42,39)	(0,9)	(-29,8)	(44,11)	(42,16)	(-78,77)	(4,1)	(-1,6)	(-5,24)	(-15,3)	(2,39)	(43,17)	
L1D 78>	(-60,25)	(-74,11)	(1,10)	(75,6)	(-17,7)	(42,22)	(-42,107)	(43,18)	(-79,51)	(5,9)	(2,10)	(3,8)	(-3,6)	(69,5)	(39,1)	(0,5)	
L1D 79>	(-60,100)	(-18,18)	(-2,20)	(-80,63)	(-66,1)	(42,41)	(-42,104)	(3,38)	(46,98)	(39,57)	(-15,30)	(2,33)	(-1,28)	(-107,27)	(38,96)	(-4,31)	
L1D 80>	(-19,23)	(38,48)	(0,1)	(2,45)	(42,65)	(-60,97)	(-1,100)	(-81,121)	(1,31)	(-42,86)	(4,17)	(14,21)	(-14,46)	(-4,18)	(3,52)	(40,11)	
L1D 81>	(-60,25)	(-4,0)	(1,13)	(44,14)	(-20,8)	(73,8)	(-42,37)	(-82,67)	(-13,8)	(-41,6)	(-5,7)	(2,14)	(-77,6)	(42,6)	(19,1)	(3,6)	
L1D 82>	(-83,115)	(-60,16)	(1,9)	(-31,1)	(-42,45)	(0,6)	(-1,16)	(12,3)	(-77,94)	(11,6)	(43,19)	(-59,5)	(-76,3)	(-78,22)	(38,19)	(-12,20)	
L1D 83>	(-60,23)	(11,28)	(1,10)	(41,32)	(-22,34)	(-3,29)	(0,7)	(-42,74)	(42,22)	(-2,20)	(-84,72)	(40,42)	(3,22)	(-1,24)	(-64,1)	(-11,28)	
L1D 84>	(61,1)	(-36,1)	(0,1)	(-42,75)	(-65,1)	(-43,10)	(33,11)	(-60,1)	(-8,0)	(-23,0)	(-5,2)	(-85,0)	(41,1)	(-2,1)	(-38,1)	(35,0)	
L1D 85>	(-60,21)	(7,8)	(49,6)	(-42,69)	(2,18)	(5,6)	(1,3)	(-43,78)	(-39,13)	(-9,20)	(61,3)	(42,9)	(3,6)	(-3,18)	(-86,1)	(9,6)	
L1D 86>	(-60,35)	(1,81)	(-8,17)	(-41,12)	(47,9)	(-42,64)	(-1,18)	(2,36)	(43,12)	(-37,3)	(4,10)	(61,6)	(-85,7)	(42,4)	(45,1)	(-14,2)	
L1D 87>	(1,45)	(-60,75)	(-42,46)	(-7,5)	(4,6)	(17,1)	(59,7)	(-26,6)	(2,9)	(-45,6)	(-88,9)	(12,6)	(-38,7)	(3,6)	(5,9)	(46,6)	
L1D 88>	(2,85)	(12,1)	(-41,2)	(-36,3)	(1,4)	(-89,1)	(-60,4)	(42,10)	(-42,19)	(44,2)	(-130,1)	(-6,5)	(-1,4)	(45,4)	(-26,1)	(-38,2)	
L1D 89>	(-43,11)	(5,119)	(0,1)	(-5,25)	(-13,11)	(-1,13)	(-42,71)	(41,23)	(44,39)	(2,30)	(64,24)	(-90,72)	(57,33)	(-41,9)	(-4,33)	(-39,19)	
L1D 90>	(8,1)	(-6,4)	(59,5)	(-1,2)	(63,7)	(-91,17)	(-43,4)	(42,2)	(-42,34)	(12,4)	(-12,5)	(43,3)	(-90,73)	(3,12)	(2,3)	(40,4)	
L1D 91>	(59,5)	(-92,65)	(57,1)	(41,15)	(-40,36)	(-43,5)	(62,13)	(40,15)	(42,12)	(-42,76)	(-2,10)	(-3,9)	(-45,9)	(-1,11)	(58,3)	(-9,3)	
[...]
L1D 459>	(1,0)	(1,0)	(1,0)	(1,0)	(1,0)	(1,0)	(1,0)	(1,0)	(1,0)	(1,0)	(1,0)	(1,0)	(1,0)	(1,0)	(1,0)	(1,0)	
L1D 460>	(1,0)	(1,0)	(1,0)	(1,0)	(1,0)	(1,0)	(1,0)	(1,0)	(1,0)	(1,0)	(1,0)	(1,0)	(1,0)	(1,0)	(1,0)	(1,0)	
L1D 461>	(1,0)	(1,0)	(1,0)	(1,0)	(1,0)	(1,0)	(1,0)	(1,0)	(1,0)	(1,0)	(1,0)	(1,0)	(1,0)	(1,0)	(1,0)	(1,0)	
L1D 462>	(1,0)	(1,0)	(1,0)	(1,0)	(1,0)	(1,0)	(1,0)	(1,0)	(1,0)	(1,0)	(1,0)	(1,0)	(1,0)	(1,0)	(1,0)	(1,0)	
L1D 463>	(1,0)	(1,0)	(1,0)	(1,0)	(1,0)	(1,0)	(1,0)	(1,0)	(1,0)	(1,0)	(1,0)	(1,0)	(1,0)	(1,0)	(1,0)	(1,0)	
L1D 464>	(1,0)	(1,0)	(1,0)	(1,0)	(1,0)	(1,0)	(1,0)	(1,0)	(1,0)	(1,0)	(1,0)	(1,0)	(1,0)	(1,0)	(1,0)	(1,0)	
L1D 465>	(1,0)	(1,0)	(1,0)	(1,0)	(1,0)	(1,0)	(1,0)	(1,0)	(1,0)	(1,0)	(1,0)	(1,0)	(1,0)	(1,0)	(1,0)	(1,0)	
L1D 466>	(1,0)	(1,0)	(1,0)	(1,0)	(1,0)	(1,0)	(1,0)	(1,0)	(1,0)	(1,0)	(1,0)	(1,0)	(1,0)	(1,0)	(1,0)	(1,0)	
L1D 467>	(1,0)	(1,0)	(1,0)	(1,0)	(1,0)	(1,0)	(1,0)	(1,0)	(1,0)	(1,0)	(1,0)	(1,0)	(1,0)	(1,0)	(1,0)	(1,0)	
L1D 468>	(1,0)	(1,0)	(1,0)	(1,0)	(1,0)	(1,0)	(1,0)	(1,0)	(1,0)	(1,0)	(1,0)	(1,0)	(1,0)	(1,0)	(1,0)	(1,0)	
L1D 469>	(1,0)	(1,0)	(1,0)	(1,0)	(1,0)	(1,0)	(1,0)	(1,0)	(1,0)	(1,0)	(1,0)	(1,0)	(1,0)	(1,0)	(1,0)	(1,0)	
L1D 470>	(3,1)	(1,0)	(1,0)	(1,0)	(1,0)	(1,0)	(1,0)	(1,0)	(1,0)	(1,0)	(1,0)	(1,0)	(1,0)	(1,0)	(1,0)	(1,0)	
L1D 471>	(1,0)	(1,0)	(1,0)	(1,0)	(1,0)	(1,0)	(1,0)	(1,0)	(1,0)	(1,0)	(1,0)	(1,0)	(1,0)	(1,0)	(1,0)	(1,0)	
L1D 472>	(1,0)	(1,0)	(1,0)	(1,0)	(1,0)	(1,0)	(1,0)	(1,0)	(1,0)	(1,0)	(1,0)	(1,0)	(1,0)	(1,0)	(1,0)	(1,0)	
L1D 473>	(1,0)	(1,0)	(1,0)	(1,0)	(1,0)	(1,0)	(1,0)	(1,0)	(1,0)	(1,0)	(1,0)	(1,0)	(1,0)	(1,0)	(1,0)	(1,0)	
L1D 474>	(1,0)	(1,0)	(1,0)	(1,0)	(1,0)	(1,0)	(1,0)	(1,0)	(1,0)	(1,0)	(1,0)	(1,0)	(1,0)	(1,0)	(1,0)	(1,0)	
L1D 475>	(1,0)	(1,0)	(1,0)	(1,0)	(1,0)	(1,0)	(1,0)	(1,0)	(1,0)	(1,0)	(1,0)	(1,0)	(1,0)	(1,0)	(1,0)	(1,0)	
L1D 476>	(1,0)	(1,0)	(1,0)	(1,0)	(1,0)	(1,0)	(1,0)	(1,0)	(1,0)	(1,0)	(1,0)	(1,0)	(1,0)	(1,0)	(1,0)	(1,0)	
L1D 477>	(1,0)	(1,0)	(1,0)	(1,0)	(1,0)	(1,0)	(1,0)	(1,0)	(1,0)	(1,0)	(1,0)	(1,0)	(1,0)	(1,0)	(1,0)	(1,0)	
L1D 478>	(1,0)	(1,0)	(1,0)	(1,0)	(1,0)	(1,0)	(1,0)	(1,0)	(1,0)	(1,0)	(1,0)	(1,0)	(1,0)	(1,0)	(1,0)	(1,0)	
L1D 479>	(1,0)	(1,0)	(1,0)	(1,0)	(1,0)	(1,0)	(1,0)	(1,0)	(1,0)	(1,0)	(1,0)	(1,0)	(1,0)	(1,0)	(1,0)	(1,0)	
L1D 480>	(1,0)	(1,0)	(1,0)	(1,0)	(1,0)	(1,0)	(1,0)	(1,0)	(1,0)	(1,0)	(1,0)	(1,0)	(1,0)	(1,0)	(1,0)	(1,0)	
L1D 481>	(6,6)	(1,0)	(1,0)	(1,0)	(1,0)	(1,0)	(1,0)	(1,0)	(1,0)	(1,0)	(1,0)	(1,0)	(1,0)	(1,0)	(1,0)	(1,0)	
L1D 482>	(1,0)	(1,0)	(1,0)	(1,0)	(1,0)	(1,0)	(1,0)	(1,0)	(1,0)	(1,0)	(1,0)	(1,0)	(1,0)	(1,0)	(1,0)	(1,0)	
L1D 483>	(1,0)	(1,0)	(1,0)	(1,0)	(1,0)	(1,0)	(1,0)	(1,0)	(1,0)	(1,0)	(1,0)	(1,0)	(1,0)	(1,0)	(1,0)	(1,0)	
L1D 484>	(1,0)	(1,0)	(1,0)	(1,0)	(1,0)	(1,0)	(1,0)	(1,0)	(1,0)	(1,0)	(1,0)	(1,0)	(1,0)	(1,0)	(1,0)	(1,0)	
L1D 485>	(1,0)	(1,0)	(1,0)	(1,0)	(1,0)	(1,0)	(1,0)	(1,0)	(1,0)	(1,0)	(1,0)	(1,0)	(1,0)	(1,0)	(1,0)	(1,0)	
L1D 486>	(1,0)	(1,0)	(1,0)	(1,0)	(1,0)	(1,0)	(1,0)	(1,0)	(1,0)	(1,0)	(1,0)	(1,0)	(1,0)	(1,0)	(1,0)	(1,0)	
L1D 487>	(1,0)	(1,0)	(1,0)	(1,0)	(1,0)	(1,0)	(1,0)	(1,0)	(1,0)	(1,0)	(1,0)	(1,0)	(1,0)	(1,0)	(1,0)	(1,0)	
L1D 488>	(1,0)	(1,0)	(1,0)	(1,0)	(1,0)	(1,0)	(1,0)	(1,0)	(1,0)	(1,0)	(1,0)	(1,0)	(1,0)	(1,0)	(1,0)	(1,0)	
L1D 489>	(1,0)	(1,0)	(1,0)	(1,0)	(1,0)	(1,0)	(1,0)	(1,0)	(1,0)	(1,0)	(1,0)	(1,0)	(1,0)	(1,0)	(1,0)	(1,0)	
L1D 490>	(1,0)	(1,0)	(1,0)	(1,0)	(1,0)	(1,0)	(1,0)	(1,0)	(1,0)	(1,0)	(1,0)	(1,0)	(1,0)	(1,0)	(1,0)	(1,0)	
L1D 491>	(1,0)	(1,0)	(1,0)	(1,0)	(1,0)	(1,0)	(1,0)	(1,0)	(1,0)	(1,0)	(1,0)	(1,0)	(1,0)	(1,0)	(1,0)	(1,0)	
L1D 492>	(1,0)	(1,0)	(1,0)	(1,0)	(1,0)	(1,0)	(1,0)	(1,0)	(1,0)	(1,0)	(1,0)	(1,0)	(1,0)	(1,0)	(1,0)	(1,0)	
L1D 493>	(1,0)	(1,0)	(1,0)	(1,0)	(1,0)	(1,0)	(1,0)	(1,0)	(1,0)	(1,0)	(1,0)	(1,0)	(1,0)	(1,0)	(1,0)	(1,0)	
L1D 494>	(1,0)	(1,0)	(1,0)	(1,0)	(1,0)	(1,0)	(1,0)	(1,0)	(1,0)	(1,0)	(1,0)	(1,0)	(1,0)	(1,0)	(1,0)	(1,0)	
L1D 495>	(1,0)	(1,0)	(1,0)	(1,0)	(1,0)	(1,0)	(1,0)	(1,0)	(1,0)	(1,0)	(1,0)	(1,0)	(1,0)	(1,0)	(1,0)	(1,0)	
L1D 496>	(1,0)	(1,0)	(1,0)	(1,0)	(1,0)	(1,0)	(1,0)	(1,0)	(1,0)	(1,0)	(1,0)	(1,0)	(1,0)	(1,0)	(1,0)	(1,0)	
L1D 497>	(1,0)	(1,0)	(1,0)	(1,0)	(1,0)	(1,0)	(1,0)	(1,0)	(1,0)	(1,0)	(1,0)	(1,0)	(1,0)	(1,0)	(1,0)	(1,0)	
L1D 498>	(1,0)	(1,0)	(1,0)	(1,0)	(1,0)	(1,0)	(1,0)	(1,0)	(1,0)	(1,0)	(1,0)	(1,0)	(1,0)	(1,0)	(1,0)	(1,0)	
L1D 499>	(1,0)	(1,0)	(1,0)	(1,0)	(1,0)	(1,0)	(1,0)	(1,0)	(1,0)	(1,0)	(1,0)	(1,0)	(1,0)	(1,0)	(1,0)	(1,0)	
L1D 500>	(1,0)	(1,0)	(1,0)	(1,0)	(1,0)	(1,0)	(1,0)	(1,0)	(1,0)	(1,0)	(1,0)	(1,0)	(1,0)	(1,0)	(1,0)	(1,0)	
L1D 501>	(1,0)	(1,0)	(1,0)	(1,0)	(1,0)	(1,0)	(1,0)	(1,0)	(1,0)	(1,0)	(1,0)	(1,0)	(1,0)	(1,0)	(1,0)	(1,0)	
L1D 502>	(1,0)	(1,0)	(1,0)	(1,0)	(1,0)	(1,0)	(1,0)	(1,0)	(1,0)	(1,0)	(1,0)	(1,0)	(1,0)	(1,0)	(1,0)	(1,0)	
L1D 503>	(1,0)	(1,0)	(1,0)	(1,0)	(1,0)	(1,0)	(1,0)	(1,0)	(1,0)	(1,0)	(1,0)	(1,0)	(1,0)	(1,0)	(1,0)	(1,0)	
L1D 504>	(1,0)	(1,0)	(1,0)	(1,0)	(1,0)	(1,0)	(1,0)	(1,0)	(1,0)	(1,0)	(1,0)	(1,0)	(1,0)	(1,0)	(1,0)	(1,0)	
L1D 505>	(1,0)	(1,0)	(1,0)	(1,0)	(1,0)	(1,0)	(1,0)	(1,0)	(1,0)	(1,0)	(1,0)	(1,0)	(1,0)	(1,0)	(1,0)	(1,0)	
L1D 506>	(1,0)	(1,0)	(1,0)	(1,0)	(1,0)	(1,0)	(1,0)	(1,0)	(1,0)	(1,0)	(1,0)	(1,0)	(1,0)	(1,0)	(1,0)	(1,0)	
L1D 507>	(1,0)	(1,0)	(1,0)	(1,0)	(1,0)	(1,0)	(1,0)	(1,0)	(1,0)	(1,0)	(1,0)	(1,0)	(1,0)	(1,0)	(1,0)	(1,0)	
L1D 508>	(1,0)	(1,0)	(1,0)	(1,0)	(1,0)	(1,0)	(1,0)	(1,0)	(1,0)	(1,0)	(1,0)	(1,0)	(1,0)	(1,0)	(1,0)	(1,0)	
L1D 509>	(1,0)	(1,0)	(1,0)	(1,0)	(1,0)	(1,0)	(1,0)	(1,0)	(1,0)	(1,0)	(1,0)	(1,0)	(1,0)	(1,0)	(1,0)	(1,0)	
L1D 510>	(1,0)	(1,0)	(1,0)	(1,0)	(1,0)	(1,0)	(1,0)	(1,0)	(1,0)	(1,0)	(1,0)	(1,0)	(1,0)	(1,0)	(1,0)	(1,0)	
L1D 511>	(1,0)	(1,0)	(1,0)	(1,0)	(1,0)	(1,0)	(1,0)	(1,0)	(1,0)	(1,0)	(1,0)	(1,0)	(1,0)	(1,0)	(1,0)	(1,0)	

L2C -64>	(1,213)	(-1,41)	(3,28)	(2,83)	(0,0)	(4,4)	(-63,0)	(-61,0)	(-38,0)	(7,0)	(-2,12)	(-4,6)	(-5,0)	(5,0)	(-3,2)	(-9,0)	
L2C -63>	(1,247)	(3,7)	(2,15)	(4,0)	(1,0)	(1,0)	(1,0)	(1,0)	(1,0)	(1,0)	(1,0)	(1,0)	(1,0)	(1,0)	(1,0)	(1,0)	
L2C -62>	(1,129)	(-1,39)	(3,1)	(2,3)	(16,0)	(1,0)	(1,0)	(1,0)	(1,0)	(1,0)	(1,0)	(1,0)	(1,0)	(1,0)	(1,0)	(1,0)	
L2C -61>	(1,80)	(2,190)	(-2,3)	(-1,8)	(1,0)	(1,0)	(1,0)	(1,0)	(1,0)	(1,0)	(1,0)	(1,0)	(1,0)	(1,0)	(1,0)	(1,0)	
L2C -60>	(2,7)	(-1,1)	(1,4)	(1,0)	(1,0)	(1,0)	(1,0)	(1,0)	(1,0)	(1,0)	(1,0)	(1,0)	(1,0)	(1,0)	(1,0)	(1,0)	
L2C -59>	(-1,7)	(1,12)	(2,1)	(1,0)	(1,0)	(1,0)	(1,0)	(1,0)	(1,0)	(1,0)	(1,0)	(1,0)	(1,0)	(1,0)	(1,0)	(1,0)	
L2C -58>	(1,6)	(58,1)	(1,0)	(1,0)	(1,0)	(1,0)	(1,0)	(1,0)	(1,0)	(1,0)	(1,0)	(1,0)	(1,0)	(1,0)	(1,0)	(1,0)	
L2C -57>	(0,1)	(1,2)	(-1,1)	(1,0)	(1,0)	(1,0)	(1,0)	(1,0)	(1,0)	(1,0)	(1,0)	(1,0)	(1,0)	(1,0)	(1,0)	(1,0)	
L2C -56>	(1,1)	(22,1)	(55,1)	(1,0)	(1,0)	(1,0)	(1,0)	(1,0)	(1,0)	(1,0)	(1,0)	(1,0)	(1,0)	(1,0)	(1,0)	(1,0)	
L2C -55>	(18,1)	(1,2)	(54,1)	(1,0)	(1,0)	(1,0)	(1,0)	(1,0)	(1,0)	(1,0)	(1,0)	(1,0)	(1,0)	(1,0)	(1,0)	(1,0)	
L2C -54>	(23,2)	(53,1)	(1,0)	(1,0)	(1,0)	(1,0)	(1,0)	(1,0)	(1,0)	(1,0)	(1,0)	(1,0)	(1,0)	(1,0)	(1,0)	(1,0)	
L2C -53>	(18,2)	(52,1)	(19,1)	(1,2)	(1,0)	(1,0)	(1,0)	(1,0)	(1,0)	(1,0)	(1,0)	(1,0)	(1,0)	(1,0)	(1,0)	(1,0)	
L2C -52>	(1,1)	(1,0)	(1,0)	(1,0)	(1,0)	(1,0)	(1,0)	(1,0)	(1,0)	(1,0)	(1,0)	(1,0)	(1,0)	(1,0)	(1,0)	(1,0)	
L2C -51>	(1,6)	(3,1)	(1,0)	(1,0)	(1,0)	(1,0)	(1,0)	(1,0)	(1,0)	(1,0)	(1,0)	(1,0)	(1,0)	(1,0)	(1,0)	(1,0)	
L2C -50>	(1,12)	(25,1)	(2,1)	(1,0)	(1,0)	(1,0)	(1,0)	(1,0)	(1,0)	(1,0)	(1,0)	(1,0)	(1,0)	(1,0)	(1,0)	(1,0)	
L2C -49>	(1,43)	(2,1)	(3,1)	(1,0)	(1,0)	(1,0)	(1,0)	(1,0)	(1,0)	(1,0)	(1,0)	(1,0)	(1,0)	(1,0)	(1,0)	(1,0)	
L2C -48>	(1,1)	(2,1)	(1,0)	(1,0)	(1,0)	(1,0)	(1,0)	(1,0)	(1,0)	(1,0)	(1,0)	(1,0)	(1,0)	(1,0)	(1,0)	(1,0)	
L2C -47>	(1,2)	(1,0)	(1,0)	(1,0)	(1,0)	(1,0)	(1,0)	(1,0)	(1,0)	(1,0)	(1,0)	(1,0)	(1,0)	(1,0)	(1,0)	(1,0)	
L2C -46>	(3,1)	(1,1)	(1,0)	(1,0)	(1,0)	(1,0)	(1,0)	(1,0)	(1,0)	(1,0)	(1,0)	(1,0)	(1,0)	(1,0)	(1,0)	(1,0)	
L2C -45>	(53,1)	(1,2)	(1,0)	(1,0)	(1,0)	(1,0)	(1,0)	(1,0)	(1,0)	(1,0)	(1,0)	(1,0)	(1,0)	(1,0)	(1,0)	(1,0)	
L2C -44>	(5,1)	(25,1)	(1,3)	(1,0)	(1,0)	(1,0)	(1,0)	(1,0)	(1,0)	(1,0)	(1,0)	(1,0)	(1,0)	(1,0)	(1,0)	(1,0)	
L2C -43>	(1,2)	(-1,2)	(1,0)	(1,0)	(1,0)	(1,0)	(1,0)	(1,0)	(1,0)	(1,0)	(1,0)	(1,0)	(1,0)	(1,0)	(1,0)	(1,0)	
L2C -42>	(1,2)	(1,0)	(1,0)	(1,0)	(1,0)	(1,0)	(1,0)	(1,0)	(1,0)	(1,0)	(1,0)	(1,0)	(1,0)	(1,0)	(1,0)	(1,0)	
L2C -41>	(2,4)	(41,1)	(1,2)	(-1,1)	(1,0)	(1,0)	(1,0)	(1,0)	(1,0)	(1,0)	(1,0)	(1,0)	(1,0)	(1,0)	(1,0)	(1,0)	
L2C -40>	(3,1)	(-1,1)	(1,3)	(2,1)	(-22,1)	(18,1)	(1,0)	(1,0)	(1,0)	(1,0)	(1,0)	(1,0)	(1,0)	(1,0)	(1,0)	(1,0)	
L2C -39>	(1,7)	(-2,2)	(-8,1)	(1,0)	(1,0)	(1,0)	(1,0)	(1,0)	(1,0)	(1,0)	(1,0)	(1,0)	(1,0)	(1,0)	(1,0)	(1,0)	
L2C -38>	(1,2)	(2,1)	(1,0)	(1,0)	(1,0)	(1,0)	(1,0)	(1,0)	(1,0)	(1,0)	(1,0)	(1,0)	(1,0)	(1,0)	(1,0)	(1,0)	
L2C -37>	(42,1)	(-2,1)	(1,1)	(2,1)	(25,1)	(1,0)	(1,0)	(1,0)	(1,0)	(1,0)	(1,0)	(1,0)	(1,0)	(1,0)	(1,0)	(1,0)	
L2C -36>	(37,1)	(1,3)	(35,1)	(5,1)	(1,0)	(1,0)	(1,0)	(1,0)	(1,0)	(1,0)	(1,0)	(1,0)	(1,0)	(1,0)	(1,0)	(1,0)	
L2C -35>	(-15,1)	(1,5)	(3,1)	(35,1)	(5,1)	(-19,1)	(34,1)	(-1,1)	(1,0)	(1,0)	(1,0)	(1,0)	(1,0)	(1,0)	(1,0)	(1,0)	
L2C -34>	(-1,1)	(34,3)	(35,1)	(7,1)	(1,7)	(2,1)	(32,1)	(1,0)	(1,0)	(1,0)	(1,0)	(1,0)	(1,0)	(1,0)	(1,0)	(1,0)	
L2C -33>	(1,10)	(33,5)	(9,1)	(1,0)	(1,0)	(1,0)	(1,0)	(1,0)	(1,0)	(1,0)	(1,0)	(1,0)	(1,0)	(1,0)	(1,0)	(1,0)	
L2C -32>	(-1,3)	(2,1)	(6,1)	(33,4)	(1,11)	(14,1)	(1,0)	(1,0)	(1,0)	(1,0)	(1,0)	(1,0)	(1,0)	(1,0)	(1,0)	(1,0)	
L2C -31>	(1,1)	(-17,1)	(6,1)	(19,1)	(-25,1)	(0,1)	(12,1)	(-1,1)	(32,1)	(1,0)	(1,0)	(1,0)	(1,0)	(1,0)	(1,0)	(1,0)	
L2C -30>	(1,61)	(3,1)	(6,9)	(12,1)	(31,1)	(19,1)	(20,1)	(1,0)	(1,0)	(1,0)	(1,0)	(1,0)	(1,0)	(1,0)	(1,0)	(1,0)	
L2C -29>	(24,1)	(1,3)	(19,1)	(6,2)	(-1,1)	(1,0)	(1,0)	(1,0)	(1,0)	(1,0)	(1,0)	(1,0)	(1,0)	(1,0)	(1,0)	(1,0)	
L2C -28>	(2,3)	(1,4)	(1,0)	(1,0)	(1,0)	(1,0)	(1,0)	(1,0)	(1,0)	(1,0)	(1,0)	(1,0)	(1,0)	(1,0)	(1,0)	(1,0)	
L2C -27>	(1,1)	(1,0)	(1,0)	(1,0)	(1,0)	(1,0)	(1,0)	(1,0)	(1,0)	(1,0)	(1,0)	(1,0)	(1,0)	(1,0)	(1,0)	(1,0)	
L2C -26>	(1,2)	(1,0)	(1,0)	(1,0)	(1,0)	(1,0)	(1,0)	(1,0)	(1,0)	(1,0)	(1,0)	(1,0)	(1,0)	(1,0)	(1,0)	(1,0)	
L2C -25>	(2,1)	(-1,1)	(1,0)	(1,0)	(1,0)	(1,0)	(1,0)	(1,0)	(1,0)	(1,0)	(1,0)	(1,0)	(1,0)	(1,0)	(1,0)	(1,0)	
L2C -24>	(1,1)	(1,0)	(1,0)	(1,0)	(1,0)	(1,0)	(1,0)	(1,0)	(1,0)	(1,0)	(1,0)	(1,0)	(1,0)	(1,0)	(1,0)	(1,0)	
L2C -23>	(23,1)	(1,1)	(28,1)	(1,0)	(1,0)	(1,0)	(1,0)	(1,0)	(1,0)	(1,0)	(1,0)	(1,0)	(1,0)	(1,0)	(1,0)	(1,0)	
L2C -22>	(1,2)	(16,1)	(1,0)	(1,0)	(1,0)	(1,0)	(1,0)	(1,0)	(1,0)	(1,0)	(1,0)	(1,0)	(1,0)	(1,0)	(1,0)	(1,0)	
L2C -21>	(1,8)	(53,2)	(3,1)	(-40,1)	(1,0)	(1,0)	(1,0)	(1,0)	(1,0)	(1,0)	(1,0)	(1,0)	(1,0)	(1,0)	(1,0)	(1,0)	
L2C -20>	(-2,1)	(19,1)	(-1,2)	(14,1)	(1,5)	(1,0)	(1,0)	(1,0)	(1,0)	(1,0)	(1,0)	(1,0)	(1,0)	(1,0)	(1,0)	(1,0)	
L2C -19>	(1,8)	(53,1)	(19,1)	(-1,2)	(-4,1)	(-43,2)	(23,1)	(1,0)	(1,0)	(1,0)	(1,0)	(1,0)	(1,0)	(1,0)	(1,0)	(1,0)	
L2C -18>	(2,1)	(1,2)	(0,1)	(7,6)	(-1,1)	(1,0)	(1,0)	(1,0)	(1,0)	(1,0)	(1,0)	(1,0)	(1,0)	(1,0)	(1,0)	(1,0)	
L2C -17>	(5,2)	(1,6)	(-11,1)	(-3,2)	(1,0)	(1,0)	(1,0)	(1,0)	(1,0)	(1,0)	(1,0)	(1,0)	(1,0)	(1,0)	(1,0)	(1,0)	
L2C -16>	(1,7)	(-11,1)	(15,1)	(12,1)	(23,1)	(11,2)	(4,1)	(1,0)	(1,0)	(1,0)	(1,0)	(1,0)	(1,0)	(1,0)	(1,0)	(1,0)	
L2C -15>	(2,1)	(1,3)	(-3,1)	(-4,1)	(-2,1)	(1,0)	(1,0)	(1,0)	(1,0)	(1,0)	(1,0)	(1,0)	(1,0)	(1,0)	(1,0)	(1,0)	
L2C -14>	(1,3)	(23,1)	(8,1)	(-3,1)	(15,2)	(7,1)	(1,0)	(1,0)	(1,0)	(1,0)	(1,0)	(1,0)	(1,0)	(1,0)	(1,0)	(1,0)	
L2C -13>	(1,60)	(13,1)	(23,1)	(-3,1)	(6,1)	(16,1)	(18,2)	(8,1)	(1,0)	(1,0)	(1,0)	(1,0)	(1,0)	(1,0)	(1,0)	(1,0)	
L2C -12>	(1,3)	(0,2)	(-7,2)	(15,1)	(11,2)	(-3,1)	(1,0)	(1,0)	(1,0)	(1,0)	(1,0)	(1,0)	(1,0)	(1,0)	(1,0)	(1,0)	
L2C -11>	(1,10)	(4,2)	(33,1)	(2,1)	(0,1)	(-8,1)	(-7,2)	(11,1)	(-1,1)	(1,0)	(1,0)	(1,0)	(1,0)	(1,0)	(1,0)	(1,0)	
L2C -10>	(-10,1)	(-1,3)	(0,2)	(-2,2)	(-13,1)	(-17,1)	(3,2)	(1,2)	(10,1)	(1,0)	(1,0)	(1,0)	(1,0)	(1,0)	(1,0)	(1,0)	
L2C -9>	(1,5)	(0,31)	(8,11)	(9,4)	(-3,1)	(1,0)	(1,0)	(1,0)	(1,0)	(1,0)	(1,0)	(1,0)	(1,0)	(1,0)	(1,0)	(1,0)	
L2C -8>	(7,2)	(1,18)	(-5,1)	(8,90)	(0,69)	(-1,4)	(3,3)	(9,6)	(2,2)	(-25,1)	(-8,1)	(1,0)	(1,0)	(1,0)	(1,0)	(1,0)	
L2C -7>	(1,14)	(5,1)	(-1,8)	(8,1)	(7,14)	(18,2)	(19,1)	(0,6)	(3,2)	(20,1)	(1,0)	(1,0)	(1,0)	(1,0)	(1,0)	(1,0)	
L2C -6>	(1,3)	(4,1)	(-5,2)	(7,2)	(-2,2)	(9,2)	(-1,5)	(-57,1)	(2,1)	(26,1)	(-10,1)	(5,1)	(0,2)	(1,0)	(1,0)	(1,0)	
L2C -5>	(-58,1)	(-1,43)	(4,3)	(8,1)	(7,46)	(1,8)	(-6,1)	(6,4)	(60,3)	(-8,1)	(2,1)	(-5,9)	(-7,1)	(-11,1)	(12,1)	(3,1)	
L2C -4>	(3,132)	(1,14)	(-8,1)	(5,6)	(20,1)	(2,1)	(23,1)	(7,103)	(10,18)	(-13,1)	(6,19)	(4,2)	(-1,6)	(-5,4)	(-7,1)	(0,1)	
L2C -3>	(1,14)	(-1,2)	(5,7)	(13,1)	(4,161)	(2,9)	(7,104)	(-58,1)	(-19,0)	(40,0)	(6,5)	(3,0)	(-4,0)	(-5,0)	(-2,0)	(-59,5)	
L2C -2>	(-11,0)	(1,241)	(4,2)	(5,15)	(2,0)	(3,71)	(-61,0)	(7,0)	(-4,0)	(12,0)	(0,0)	(1,0)	(1,0)	(1,0)	(1,0)	(1,0)	
L2C -1>	(2,194)	(3,181)	(-61,7)	(4,171)	(-62,2)	(-8,1)	(6,0)	(-32,0)	(-1,0)	(7,0)	(10,0)	(-6,0)	(0,0)	(5,4)	(-3,0)	(1,3)	
L2C 0>	(-1,7)	(0,192)	(-32,1)	(1,54)	(-6,0)	(-7,0)	(7,0)	(6,0)	(-20,0)	(-8,11)	(9,2)	(-9,0)	(2,0)	(8,15)	(-3,1)	(-36,0)	
L2C 1>	(1,224)	(-61,0)	(2,24)	(3,18)	(-3,0)	(16,0)	(-1,1)	(-2,8)	(32,0)	(5,0)	(-4,0)	(4,3)	(0,0)	(-30,0)	(-63,1)	(6,0)	
L2C 2>	(1,181)	(3,19)	(2,167)	(-5,0)	(-63,5)	(-1,220)	(-61,0)	(5,0)	(4,0)	(6,0)	(-24,0)	(1,0)	(1,0)	(1,0)	(1,0)	(1,0)	
L2C 3>	(3,43)	(1,80)	(2,133)	(-1,232)	(-2,29)	(-63,1)	(-62,1)	(4,3)	(-4,0)	(-40,0)	(1,0)	(1,0)	(1,0)	(1,0)	(1,0)	(1,0)	
L2C 4>	(1,35)	(-1,112)	(-2,212)	(31,0)	(2,9)	(-63,0)	(5,0)	(3,1)	(-4,0)	(1,0)	(1,0)	(1,0)	(1,0)	(1,0)	(1,0)	(1,0)	
L2C 5>	(1,181)	(-2,13)	(53,1)	(2,248)	(6,0)	(30,0)	(3,16)	(4,4)	(-30,0)	(-1,10)	(0,0)	(-55,0)	(5,0)	(-62,0)	(-19,0)	(-63,0)	
L2C 6>	(-8,2)	(-5,4)	(-1,28)	(1,71)	(-63,1)	(0,3)	(-2,78)	(4,1)	(2,8)	(-57,1)	(6,30)	(20,1)	(7,14)	(-36,3)	(-54,2)	(13,4)	
L2C 7>	(-13,1)	(5,0)	(1,49)	(-1,213)	(3,8)	(2,0)	(4,0)	(-8,5)	(-7,9)	(-53,1)	(11,3)	(0,3)	(6,5)	(-44,0)	(-2,1)	(-6,0)	
L2C 8>	(2,2)	(1,17)	(0,51)	(-8,105)	(-7,1)	(18,1)	(-1,5)	(-5,2)	(1,0)	(1,0)	(1,0)	(1,0)	(1,0)	(1,0)	(1,0)	(1,0)	
L2C 9>	(-13,1)	(-10,1)	(0,2)	(-9,22)	(-2,1)	(-8,2)	(6,2)	(2,3)	(-16,1)	(1,0)	(1,0)	(1,0)	(1,0)	(1,0)	(1,0)	(1,0)	
L2C 10>	(-9,1)	(-1,1)	(1,27)	(35,1)	(-12,1)	(-13,3)	(-6,1)	(-4,1)	(-16,1)	(1,0)	(1,0)	(1,0)	(1,0)	(1,0)	(1,0)	(1,0)	
L2C 11>	(1,7)	(4,1)	(-20,1)	(-4,1)	(-1,3)	(-5,10)	(-11,2)	(-18,2)	(-30,1)	(0,1)	(-19,1)	(-22,1)	(1,0)	(1,0)	(1,0)	(1,0)	
L2C 12>	(9,1)	(-14,1)	(5,2)	(0,1)	(-2,2)	(-1,22)	(-12,2)	(7,1)	(-19,1)	(-37,1)	(6,1)	(3,2)	(4,11)	(8,1)	(1,0)	(1,0)	
L2C 13>	(-15,1)	(5,2)	(1,3)	(-5,1)	(6,3)	(-12,3)	(-14,1)	(-1,1)	(4,2)	(1,0)	(1,0)	(1,0)	(1,0)	(1,0)	(1,0)	(1,0)	
L2C 14>	(-25,1)	(0,1)	(6,1)	(-4,1)	(-17,1)	(-1,1)	(1,0)	(1,0)	(1,0)	(1,0)	(1,0)	(1,0)	(1,0)	(1,0)	(1,0)	(1,0)	
L2C 15>	(-1,4)	(3,2)	(1,2)	(-4,3)	(2,1)	(-5,1)	(1,0)	(1,0)	(1,0)	(1,0)	(1,0)	(1,0)	(1,0)	(1,0)	(1,0)	(1,0)	
L2C 16>	(-15,2)	(1,2)	(-19,4)	(-5,2)	(-1,1)	(-3,1)	(-4,2)	(1,0)	(1,0)	(1,0)	(1,0)	(1,0)	(1,0)	(1,0)	(1,0)	(1,0)	
L2C 17>	(-20,3)	(1,0)	(1,0)	(1,0)	(1,0)	(1,0)	(1,0)	(1,0)	(1,0)	(1,0)	(1,0)	(1,0)	(1,0)	(1,0)	(1,0)	(1,0)	
L2C 18>	(-11,4)	(-17,3)	(-32,1)	(35,2)	(1,1)	(-19,1)	(-40,1)	(1,0)	(1,0)	(1,0)	(1,0)	(1,0)	(1,0)	(1,0)	(1,0)	(1,0)	
L2C 19>	(-18,3)	(1,1)	(-20,1)	(34,1)	(-19,1)	(6,5)	(-2,2)	(1,0)	(1,0)	(1,0)	(1,0)	(1,0)	(1,0)	(1,0)	(1,0)	(1,0)	
L2C 20>	(-15,1)	(-13,1)	(1,1)	(-3,3)	(1,0)	(1,0)	(1,0)	(1,0)	(1,0)	(1,0)	(1,0)	(1,0)	(1,0)	(1,0)	(1,0)	(1,0)	
L2C 21>	(-10,1)	(1,1)	(-17,1)	(1,0)	(1,0)	(1,0)	(1,0)	(1,0)	(1,0)	(1,0)	(1,0)	(1,0)	(1,0)	(1,0)	(1,0)	(1,0)	
L2C 22>	(-1,1)	(1,1)	(1,0)	(1,0)	(1,0)	(1,0)	(1,0)	(1,0)	(1,0)	(1,0)	(1,0)	(1,0)	(1,0)	(1,0)	(1,0)	(1,0)	
L2C 23>	(-10,1)	(0,1)	(-20,1)	(-23,2)	(-1,1)	(6,3)	(11,1)	(1,0)	(1,0)	(1,0)	(1,0)	(1,0)	(1,0)	(1,0)	(1,0)	(1,0)	
L2C 24>	(-18,1)	(1,1)	(4,1)	(-30,1)	(1,0)	(1,0)	(1,0)	(1,0)	(1,0)	(1,0)	(1,0)	(1,0)	(1,0)	(1,0)	(1,0)	(1,0)	
L2C 25>	(1,1)	(6,3)	(-56,1)	(25,1)	(-28,1)	(1,0)	(1,0)	(1,0)	(1,0)	(1,0)	(1,0)	(1,0)	(1,0)	(1,0)	(1,0)	(1,0)	
L2C 26>	(-20,1)	(-8,1)	(1,0)	(1,0)	(1,0)	(1,0)	(1,0)	(1,0)	(1,0)	(1,0)	(1,0)	(1,0)	(1,0)	(1,0)	(1,0)	(1,0)	
L2C 27>	(1,1)	(-18,1)	(1,0)	(1,0)	(1,0)	(1,0)	(1,0)	(1,0)	(1,0)	(1,0)	(1,0)	(1,0)	(1,0)	(1,0)	(1,0)	(1,0)	
L2C 28>	(19,1)	(1,1)	(1,0)	(1,0)	(1,0)	(1,0)	(1,0)	(1,0)	(1,0)	(1,0)	(1,0)	(1,0)	(1,0)	(1,0)	(1,0)	(1,0)	
L2C 29>	(1,0)	(1,0)	(1,0)	(1,0)	(1,0)	(1,0)	(1,0)	(1,0)	(1,0)	(1,0)	(1,0)	(1,0)	(1,0)	(1,0)	(1,0)	(1,0)	
L2C 30>	(-35,1)	(1,0)	(1,0)	(1,0)	(1,0)	(1,0)	(1,0)	(1,0)	(1,0)	(1,0)	(1,0)	(1,0)	(1,0)	(1,0)	(1,0)	(1,0)	
L2C 31>	(-45,1)	(-31,1)	(-16,1)	(1,0)	(1,0)	(1,0)	(1,0)	(1,0)	(1,0)	(1,0)	(1,0)	(1,0)	(1,0)	(1,0)	(1,0)	(1,0)	
L2C 32>	(-33,7)	(-30,2)	(1,8)	(-1,6)	(-31,1)	(1,0)	(1,0)	(1,0)	(1,0)	(1,0)	(1,0)	(1,0)	(1,0)	(1,0)	(1,0)	(1,0)	
L2C 33>	(1,1)	(-21,1)	(-33,1)	(-32,3)	(-34,5)	(-2,2)	(-1,2)	(1,0)	(1,0)	(1,0)	(1,0)	(1,0)	(1,0)	(1,0)	(1,0)	(1,0)	
L2C 34>	(1,1)	(-35,2)	(-33,2)	(-53,1)	(-34,1)	(1,0)	(1,0)	(1,0)	(1,0)	(1,0)	(1,0)	(1,0)	(1,0)	(1,0)	(1,0)	(1,0)	
L2C 35>	(1,2)	(-34,1)	(0,3)	(1,0)	(1,0)	(1,0)	(1,0)	(1,0)	(1,0)	(1,0)	(1,0)	(1,0)	(1,0)	(1,0)	(1,0)	(1,0)	
L2C 36>	(1,0)	(1,0)	(1,0)	(1,0)	(1,0)	(1,0)	(1,0)	(1,0)	(1,0)	(1,0)	(1,0)	(1,0)	(1,0)	(1,0)	(1,0)	(1,0)	
L2C 37>	(1,2)	(1,0)	(1,0)	(1,0)	(1,0)	(1,0)	(1,0)	(1,0)	(1,0)	(1,0)	(1,0)	(1,0)	(1,0)	(1,0)	(1,0)	(1,0)	
L2C 38>	(1,0)	(1,0)	(1,0)	(1,0)	(1,0)	(1,0)	(1,0)	(1,0)	(1,0)	(1,0)	(1,0)	(1,0)	(1,0)	(1,0)	(1,0)	(1,0)	
L2C 39>	(1,0)	(1,0)	(1,0)	(1,0)	(1,0)	(1,0)	(1,0)	(1,0)	(1,0)	(1,0)	(1,0)	(1,0)	(1,0)	(1,0)	(1,0)	(1,0)	
L2C 40>	(1,3)	(1,0)	(1,0)	(1,0)	(1,0)	(1,0)	(1,0)	(1,0)	(1,0)	(1,0)	(1,0)	(1,0)	(1,0)	(1,0)	(1,0)	(1,0)	
L2C 41>	(-40,1)	(1,1)	(-39,2)	(1,0)	(1,0)	(1,0)	(1,0)	(1,0)	(1,0)	(1,0)	(1,0)	(1,0)	(1,0)	(1,0)	(1,0)	(1,0)	
L2C 42>	(1,1)	(2,1)	(-1,1)	(1,0)	(1,0)	(1,0)	(1,0)	(1,0)	(1,0)	(1,0)	(1,0)	(1,0)	(1,0)	(1,0)	(1,0)	(1,0)	
L2C 43>	(1,0)	(1,0)	(1,0)	(1,0)	(1,0)	(1,0)	(1,0)	(1,0)	(1,0)	(1,0)	(1,0)	(1,0)	(1,0)	(1,0)	(1,0)	(1,0)	
L2C 44>	(1,0)	(1,0)	(1,0)	(1,0)	(1,0)	(1,0)	(1,0)	(1,0)	(1,0)	(1,0)	(1,0)	(1,0)	(1,0)	(1,0)	(1,0)	(1,0)	
L2C 45>	(1,0)	(1,0)	(1,0)	(1,0)	(1,0)	(1,0)	(1,0)	(1,0)	(1,0)	(1,0)	(1,0)	(1,0)	(1,0)	(1,0)	(1,0)	(1,0)	
L2C 46>	(1,0)	(1,0)	(1,0)	(1,0)	(1,0)	(1,0)	(1,0)	(1,0)	(1,0)	(1,0)	(1,0)	(1,0)	(1,0)	(1,0)	(1,0)	(1,0)	
L2C 47>	(1,0)	(1,0)	(1,0)	(1,0)	(1,0)	(1,0)	(1,0)	(1,0)	(1,0)	(1,0)	(1,0)	(1,0)	(1,0)	(1,0)	(1,0)	(1,0)	
L2C 48>	(1,0)	(1,0)	(1,0)	(1,0)	(1,0)	(1,0)	(1,0)	(1,0)	(1,0)	(1,0)	(1,0)	(1,0)	(1,0)	(1,0)	(1,0)	(1,0)	
L2C 49>	(1,0)	(1,0)	(1,0)	(1,0)	(1,0)	(1,0)	(1,0)	(1,0)	(1,0)	(1,0)	(1,0)	(1,0)	(1,0)	(1,0)	(1,0)	(1,0)	
L2C 50>	(1,0)	(1,0)	(1,0)	(1,0)	(1,0)	(1,0)	(1,0)	(1,0)	(1,0)	(1,0)	(1,0)	(1,0)	(1,0)	(1,0)	(1,0)	(1,0)	
L2C 51>	(1,0)	(1,0)	(1,0)	(1,0)	(1,0)	(1,0)	(1,0)	(1,0)	(1,0)	(1,0)	(1,0)	(1,0)	(1,0)	(1,0)	(1,0)	(1,0)	
L2C 52>	(-34,1)	(1,0)	(1,0)	(1,0)	(1,0)	(1,0)	(1,0)	(1,0)	(1,0)	(1,0)	(1,0)	(1,0)	(1,0)	(1,0)	(1,0)	(1,0)	
L2C 53>	(1,1)	(-35,2)	(-34,1)	(-30,4)	(0,1)	(-58,1)	(1,0)	(1,0)	(1,0)	(1,0)	(1,0)	(1,0)	(1,0)	(1,0)	(1,0)	(1,0)	
L2C 54>	(-29,1)	(1,0)	(1,0)	(1,0)	(1,0)	(1,0)	(1,0)	(1,0)	(1,0)	(1,0)	(1,0)	(1,0)	(1,0)	(1,0)	(1,0)	(1,0)	
L2C 55>	(-30,1)	(1,0)	(1,0)	(1,0)	(1,0)	(1,0)	(1,0)	(1,0)	(1,0)	(1,0)	(1,0)	(1,0)	(1,0)	(1,0)	(1,0)	(1,0)	
L2C 56>	(1,0)	(1,0)	(1,0)	(1,0)	(1,0)	(1,0)	(1,0)	(1,0)	(1,0)	(1,0)	(1,0)	(1,0)	(1,0)	(1,0)	(1,0)	(1,0)	
L2C 57>	(1,0)	(1,0)	(1,0)	(1,0)	(1,0)	(1,0)	(1,0)	(1,0)	(1,0)	(1,0)	(1,0)	(1,0)	(1,0)	(1,0)	(1,0)	(1,0)	
L2C 58>	(0,1)	(1,0)	(1,0)	(1,0)	(1,0)	(1,0)	(1,0)	(1,0)	(1,0)	(1,0)	(1,0)	(1,0)	(1,0)	(1,0)	(1,0)	(1,0)	
L2C 59>	(1,0)	(1,0)	(1,0)	(1,0)	(1,0)	(1,0)	(1,0)	(1,0)	(1,0)	(1,0)	(1,0)	(1,0)	(1,0)	(1,0)	(1,0)	(1,0)	
L2C 60>	(1,1)	(1,0)	(1,0)	(1,0)	(1,0)	(1,0)	(1,0)	(1,0)	(1,0)	(1,0)	(1,0)	(1,0)	(1,0)	(1,0)	(1,0)	(1,0)	
L2C 61>	(1,0)	(1,0)	(1,0)	(1,0)	(1,0)	(1,0)	(1,0)	(1,0)	(1,0)	(1,0)	(1,0)	(1,0)	(1,0)	(1,0)	(1,0)	(1,0)	
L2C 62>	(1,0)	(1,0)	(1,0)	(1,0)	(1,0)	(1,0)	(1,0)	(1,0)	(1,0)	(1,0)	(1,0)	(1,0)	(1,0)	(1,0)	(1,0)	(1,0)	
L2C 63>	(1,0)	(1,0)	(1,0)	(1,0)	(1,0)	(1,0)	(1,0)	(1,0)	(1,0)	(1,0)	(1,0)	(1,0)	(1,0)	(1,0)	(1,0)	(1,0)	

DRAM Statistics
 CHANNEL 0
 RQ ROW_BUFFER_HIT:     348442  ROW_BUFFER_MISS:     951721
 DBUS_CONGESTED:    1398426
 WQ ROW_BUFFER_HIT:     143276  ROW_BUFFER_MISS:     645895  FULL:          0

 AVG_CONGESTED_CYCLE: 6
