
*** ChampSim Multicore Out-of-Order Simulator ***

Warmup Instructions: 1000000
Simulation Instructions: 10000000
Number of CPUs: 4
LLC sets: 8192
LLC ways: 16
Off-chip DRAM Size: 4096 MB Channels: 1 Width: 64-bit Data Rate: 3200 MT/s

CPU 0 runs /home/virtualcse/Data-Prefetching/ChampSim/dpc3_traces/620.omnetpp_s-141B.champsimtrace.xz
CPU 1 runs /home/virtualcse/Data-Prefetching/ChampSim/dpc3_traces/621.wrf_s-6673B.champsimtrace.xz
CPU 2 runs /home/virtualcse/Data-Prefetching/ChampSim/dpc3_traces/603.bwaves_s-1080B.champsimtrace.xz
CPU 3 runs /home/virtualcse/Data-Prefetching/ChampSim/dpc3_traces/644.nab_s-9322B.champsimtrace.xz
Ultra pref. initializing...
Ultra pref. initialized
Ultra pref. initializing...
Ultra pref. initialized
Ultra pref. initializing...
Ultra pref. initialized
Ultra pref. initializing...
Ultra pref. initialized
Ultra pref. initializing...
Ultra pref. initialized
Ultra pref. initializing...
Ultra pref. initialized
Ultra pref. initializing...
Ultra pref. initialized
Ultra pref. initializing...
Ultra pref. initialized

Warmup complete CPU 0 instructions: 1000001 cycles: 540093 (Simulation time: 0 hr 0 min 12 sec) 
Warmup complete CPU 1 instructions: 1510626 cycles: 540092 (Simulation time: 0 hr 0 min 12 sec) 
Warmup complete CPU 2 instructions: 1559070 cycles: 540092 (Simulation time: 0 hr 0 min 12 sec) 
Warmup complete CPU 3 instructions: 1401031 cycles: 540092 (Simulation time: 0 hr 0 min 12 sec) 

Heartbeat CPU 2 instructions: 10000001 cycles: 4686841 heartbeat IPC: 2.13363 cumulative IPC: 2.03555 (Simulation time: 0 hr 0 min 57 sec) 
Finished CPU 2 instructions: 10000000 cycles: 4965418 cumulative IPC: 2.01393 (Simulation time: 0 hr 1 min 7 sec) 
Heartbeat CPU 1 instructions: 10000001 cycles: 5780307 heartbeat IPC: 1.73001 cumulative IPC: 1.62004 (Simulation time: 0 hr 1 min 9 sec) 
Heartbeat CPU 3 instructions: 10000001 cycles: 6428951 heartbeat IPC: 1.55546 cumulative IPC: 1.46021 (Simulation time: 0 hr 1 min 15 sec) 
Finished CPU 1 instructions: 10000003 cycles: 6698295 cumulative IPC: 1.49292 (Simulation time: 0 hr 1 min 22 sec) 
Finished CPU 3 instructions: 10000000 cycles: 6854094 cumulative IPC: 1.45898 (Simulation time: 0 hr 1 min 24 sec) 
Heartbeat CPU 2 instructions: 20000003 cycles: 9823576 heartbeat IPC: 1.94676 cumulative IPC: 1.98642 (Simulation time: 0 hr 1 min 47 sec) 
Heartbeat CPU 3 instructions: 20000001 cycles: 13279329 heartbeat IPC: 1.45977 cumulative IPC: 1.45998 (Simulation time: 0 hr 2 min 17 sec) 
Heartbeat CPU 1 instructions: 20000002 cycles: 13372595 heartbeat IPC: 1.31713 cumulative IPC: 1.44082 (Simulation time: 0 hr 2 min 18 sec) 
Heartbeat CPU 2 instructions: 30000001 cycles: 14434602 heartbeat IPC: 2.16871 cumulative IPC: 2.04692 (Simulation time: 0 hr 2 min 30 sec) 
Heartbeat CPU 1 instructions: 30000003 cycles: 18123383 heartbeat IPC: 2.10491 cumulative IPC: 1.62025 (Simulation time: 0 hr 3 min 5 sec) 
Heartbeat CPU 2 instructions: 40000003 cycles: 19050019 heartbeat IPC: 2.16665 cumulative IPC: 2.07677 (Simulation time: 0 hr 3 min 15 sec) 
Heartbeat CPU 3 instructions: 30000002 cycles: 20061972 heartbeat IPC: 1.47435 cumulative IPC: 1.46497 (Simulation time: 0 hr 3 min 24 sec) 
Heartbeat CPU 2 instructions: 50000003 cycles: 23701529 heartbeat IPC: 2.14984 cumulative IPC: 2.09145 (Simulation time: 0 hr 3 min 51 sec) 
Heartbeat CPU 3 instructions: 40000002 cycles: 26912387 heartbeat IPC: 1.45977 cumulative IPC: 1.46362 (Simulation time: 0 hr 4 min 14 sec) 
Heartbeat CPU 2 instructions: 60000000 cycles: 28438140 heartbeat IPC: 2.11121 cumulative IPC: 2.0948 (Simulation time: 0 hr 4 min 25 sec) 
Heartbeat CPU 0 instructions: 10000000 cycles: 32861156 heartbeat IPC: 0.304311 cumulative IPC: 0.278456 (Simulation time: 0 hr 4 min 58 sec) 
Heartbeat CPU 2 instructions: 70000003 cycles: 33161387 heartbeat IPC: 2.11719 cumulative IPC: 2.09804 (Simulation time: 0 hr 5 min 1 sec) 
Heartbeat CPU 1 instructions: 40000002 cycles: 33332597 heartbeat IPC: 0.657496 cumulative IPC: 1.17372 (Simulation time: 0 hr 5 min 2 sec) 
Heartbeat CPU 3 instructions: 50000000 cycles: 33792534 heartbeat IPC: 1.45346 cumulative IPC: 1.46152 (Simulation time: 0 hr 5 min 7 sec) 
Finished CPU 0 instructions: 10000000 cycles: 36303530 cumulative IPC: 0.275455 (Simulation time: 0 hr 5 min 31 sec) 

CPU 0 Branch Prediction Accuracy: 96.1891% MPKI: 5.6957 Average ROB Occupancy at Mispredict: 86.1927

CPU 1 Branch Prediction Accuracy: 99.2731% MPKI: 0.451909 Average ROB Occupancy at Mispredict: 265.577

CPU 2 Branch Prediction Accuracy: 92.2995% MPKI: 10.3237 Average ROB Occupancy at Mispredict: 84.1412

CPU 3 Branch Prediction Accuracy: 98.1462% MPKI: 2.31235 Average ROB Occupancy at Mispredict: 70.917

ChampSim completed all CPUs

Total Simulation Statistics (not including warmup)

CPU 0 cumulative IPC: 0.275455 instructions: 10000000 cycles: 36303530
L1D TOTAL     ACCESS:    6163252  HIT:    5780197  MISS:     383055
L1D LOAD      ACCESS:    2269475  HIT:    2112094  MISS:     157381
L1D RFO       ACCESS:    1781559  HIT:    1765270  MISS:      16289
L1D PREFETCH  ACCESS:    2112218  HIT:    1902833  MISS:     209385
L1D WRITEBACK ACCESS:          0  HIT:          0  MISS:          0
L1I TOTAL     ACCESS:    1095295  HIT:    1089124  MISS:       6171
L1I LOAD      ACCESS:    1095295  HIT:    1089124  MISS:       6171
L1I RFO       ACCESS:          0  HIT:          0  MISS:          0
L1I PREFETCH  ACCESS:          0  HIT:          0  MISS:          0
L1I WRITEBACK ACCESS:          0  HIT:          0  MISS:          0
L2C TOTAL     ACCESS:    1045881  HIT:     550188  MISS:     495693
L2C LOAD      ACCESS:     160074  HIT:      71913  MISS:      88161
L2C RFO       ACCESS:      15485  HIT:       5852  MISS:       9633
L2C PREFETCH  ACCESS:     771768  HIT:     374213  MISS:     397555
L2C WRITEBACK ACCESS:      98554  HIT:      98210  MISS:        344

L1D -512>	(68,4)	(13,2)	(-9,4)	(42,51)	(0,112)	(5,16)	(4,37)	(22,2)	(1,43)	(2,12)	(3,10)	(84,5)	(12,2)	(-1,18)	(8,5)	(-2,3)	
L1D -511>	(1,72)	(5,2)	(2,41)	(3,8)	(0,2)	(435,0)	(340,0)	(486,0)	(9,0)	(8,0)	(4,7)	(6,1)	(33,0)	(7,1)	(1,0)	(1,0)	
L1D -510>	(2,80)	(4,30)	(8,9)	(3,50)	(6,12)	(14,3)	(0,41)	(126,3)	(84,4)	(7,3)	(-1,4)	(1,21)	(288,1)	(420,1)	(480,1)	(42,36)	
L1D -509>	(-1,29)	(1,40)	(2,96)	(3,97)	(6,14)	(477,1)	(4,15)	(7,2)	(-2,2)	(454,1)	(42,6)	(0,2)	(460,1)	(1,0)	(1,0)	(1,0)	
L1D -508>	(1,52)	(2,119)	(4,19)	(0,23)	(6,11)	(5,4)	(-2,20)	(-1,3)	(10,1)	(480,1)	(508,1)	(500,1)	(488,1)	(3,35)	(7,1)	(315,1)	
L1D -507>	(2,48)	(-1,5)	(6,1)	(1,20)	(3,15)	(8,1)	(4,13)	(307,1)	(415,1)	(9,2)	(-4,1)	(0,1)	(-2,1)	(5,2)	(77,1)	(10,1)	
L1D -506>	(1,34)	(-1,10)	(2,116)	(4,11)	(3,37)	(-2,3)	(0,6)	(6,7)	(496,1)	(502,2)	(340,2)	(351,1)	(484,2)	(304,1)	(384,1)	(8,4)	
L1D -505>	(-1,6)	(1,44)	(2,26)	(3,18)	(-2,4)	(24,1)	(306,1)	(6,3)	(372,1)	(482,1)	(-6,1)	(453,1)	(4,5)	(291,1)	(371,2)	(444,1)	
L1D -504>	(-1,7)	(1,29)	(4,9)	(6,4)	(0,9)	(2,30)	(505,4)	(8,1)	(502,1)	(484,6)	(486,2)	(9,2)	(490,4)	(3,7)	(11,1)	(330,1)	
L1D -503>	(3,13)	(-1,14)	(1,15)	(455,3)	(480,2)	(508,1)	(308,1)	(264,1)	(96,1)	(2,31)	(84,1)	(-2,4)	(0,3)	(4,5)	(6,1)	(352,1)	
L1D -502>	(-1,4)	(1,43)	(-2,21)	(0,1)	(477,1)	(482,4)	(2,4)	(492,4)	(98,1)	(88,1)	(99,1)	(371,1)	(496,3)	(464,1)	(226,2)	(359,1)	
L1D -501>	(4,3)	(1,18)	(-1,2)	(283,1)	(-6,1)	(382,1)	(494,1)	(500,1)	(2,4)	(455,1)	(-10,1)	(342,1)	(3,1)	(-2,1)	(417,1)	(5,1)	
L1D -500>	(1,38)	(3,2)	(7,2)	(486,7)	(2,19)	(-1,3)	(498,5)	(502,1)	(190,1)	(496,2)	(415,1)	(274,1)	(482,4)	(474,2)	(492,9)	(490,3)	
L1D -499>	(1,10)	(499,2)	(3,13)	(-2,8)	(2,10)	(495,2)	(11,2)	(153,1)	(389,1)	(285,1)	(375,1)	(496,1)	(466,1)	(331,1)	(376,1)	(490,1)	
L1D -498>	(1,49)	(5,3)	(4,4)	(486,1)	(474,4)	(482,4)	(2,28)	(6,2)	(85,3)	(496,10)	(494,2)	(3,5)	(470,2)	(490,6)	(499,3)	(480,3)	
L1D -497>	(1,10)	(190,4)	(319,2)	(294,2)	(322,4)	(340,2)	(3,30)	(0,3)	(362,2)	(366,4)	(4,7)	(84,1)	(478,1)	(2,20)	(-14,1)	(418,1)	
L1D -496>	(334,2)	(1,33)	(2,17)	(492,8)	(494,2)	(486,4)	(496,6)	(474,3)	(497,4)	(476,5)	(480,4)	(478,6)	(500,2)	(3,11)	(498,1)	(-1,2)	
L1D -495>	(1,13)	(-1,3)	(3,2)	(200,1)	(378,1)	(68,1)	(2,11)	(498,1)	(423,1)	(397,1)	(4,4)	(357,1)	(358,1)	(407,1)	(296,1)	(475,2)	
L1D -494>	(482,6)	(484,3)	(3,3)	(476,5)	(1,3)	(466,1)	(502,1)	(504,3)	(474,6)	(488,3)	(483,1)	(128,1)	(492,4)	(478,7)	(30,1)	(500,3)	
L1D -493>	(490,1)	(1,10)	(281,1)	(479,1)	(309,1)	(443,1)	(286,1)	(3,12)	(2,5)	(426,2)	(402,1)	(423,1)	(-1,1)	(52,1)	(4,1)	(-18,1)	
L1D -492>	(4,6)	(2,7)	(3,4)	(496,4)	(488,6)	(490,5)	(427,1)	(478,7)	(474,2)	(466,3)	(494,6)	(484,12)	(5,8)	(498,3)	(500,3)	(502,2)	
L1D -491>	(1,13)	(2,21)	(7,2)	(473,1)	(-1,11)	(500,1)	(280,1)	(277,1)	(4,4)	(0,3)	(3,12)	(476,1)	(86,1)	(496,1)	(410,1)	(442,1)	
L1D -490>	(2,4)	(3,7)	(484,7)	(474,5)	(480,6)	(468,5)	(488,4)	(492,7)	(486,10)	(472,6)	(494,2)	(1,2)	(498,1)	(490,5)	(-1,1)	(464,3)	
L1D -489>	(1,15)	(-1,3)	(38,23)	(2,8)	(37,24)	(75,10)	(225,2)	(328,2)	(7,6)	(480,4)	(0,3)	(476,1)	(428,1)	(4,4)	(3,5)	(486,1)	
L1D -488>	(474,11)	(1,6)	(489,5)	(478,5)	(492,9)	(2,3)	(486,6)	(496,8)	(13,3)	(468,5)	(482,7)	(15,2)	(4,2)	(470,6)	(490,6)	(300,1)	
L1D -487>	(3,11)	(1,27)	(302,1)	(403,1)	(484,1)	(2,3)	(-2,4)	(66,1)	(488,1)	(447,1)	(-1,15)	(126,1)	(289,1)	(412,1)	(397,1)	(304,1)	
L1D -486>	(488,8)	(1,6)	(466,8)	(480,11)	(2,10)	(490,9)	(510,1)	(482,6)	(486,18)	(492,5)	(498,9)	(478,16)	(0,3)	(468,7)	(294,2)	(472,4)	
L1D -485>	(1,13)	(476,1)	(-1,7)	(429,1)	(488,2)	(2,15)	(4,3)	(3,11)	(346,1)	(6,2)	(351,2)	(498,1)	(419,1)	(458,1)	(466,2)	(485,1)	
L1D -484>	(478,8)	(480,12)	(2,8)	(472,1)	(4,3)	(466,8)	(1,7)	(359,2)	(494,3)	(490,6)	(492,5)	(482,11)	(474,8)	(85,2)	(476,3)	(488,10)	
L1D -483>	(1,10)	(495,1)	(242,1)	(461,1)	(108,1)	(425,1)	(42,1)	(457,1)	(316,1)	(5,7)	(2,3)	(460,1)	(3,2)	(4,6)	(296,1)	(273,1)	
L1D -482>	(504,1)	(492,10)	(484,19)	(2,8)	(476,13)	(466,4)	(488,8)	(456,3)	(478,2)	(15,2)	(1,9)	(482,15)	(490,4)	(480,9)	(472,7)	(474,11)	
L1D -481>	(1,16)	(363,1)	(380,1)	(349,1)	(482,1)	(315,1)	(-1,4)	(-2,10)	(94,1)	(146,1)	(382,1)	(3,5)	(2,6)	(403,1)	(4,2)	(486,1)	
L1D -480>	(1,10)	(486,1)	(480,16)	(472,12)	(5,2)	(4,5)	(474,8)	(496,5)	(504,3)	(2,6)	(466,5)	(494,7)	(468,3)	(462,10)	(478,9)	(484,7)	
L1D -479>	(1,26)	(-1,7)	(472,1)	(4,3)	(511,1)	(318,2)	(364,1)	(146,1)	(2,6)	(480,1)	(3,5)	(436,1)	(470,1)	(353,1)	(474,1)	(441,1)	
L1D -478>	(1,6)	(478,6)	(480,14)	(476,16)	(458,9)	(0,4)	(479,4)	(452,5)	(492,7)	(484,9)	(482,7)	(486,12)	(311,1)	(506,1)	(474,14)	(466,11)	
L1D -477>	(11,2)	(1,15)	(480,1)	(474,2)	(468,2)	(478,5)	(486,2)	(470,1)	(283,1)	(503,1)	(450,2)	(24,1)	(447,1)	(6,1)	(466,2)	(192,1)	
L1D -476>	(1,6)	(480,11)	(492,6)	(2,9)	(472,2)	(3,5)	(477,11)	(496,4)	(478,7)	(460,6)	(474,12)	(482,8)	(468,11)	(490,9)	(476,9)	(464,8)	
L1D -475>	(7,3)	(1,6)	(9,1)	(336,1)	(476,5)	(469,2)	(488,1)	(2,11)	(141,1)	(3,4)	(52,1)	(464,1)	(351,1)	(314,1)	(-2,2)	(-1,2)	
L1D -474>	(1,11)	(2,3)	(486,5)	(466,12)	(456,7)	(16,3)	(202,2)	(-16,1)	(484,8)	(474,22)	(480,17)	(458,5)	(326,1)	(472,13)	(494,5)	(468,9)	
L1D -473>	(-1,5)	(4,1)	(1,18)	(478,1)	(3,3)	(404,1)	(236,2)	(444,1)	(482,1)	(370,1)	(502,1)	(276,1)	(336,3)	(341,1)	(287,1)	(379,1)	
L1D -472>	(468,10)	(2,12)	(474,13)	(466,8)	(478,11)	(482,7)	(464,14)	(1,7)	(190,1)	(472,17)	(458,6)	(488,5)	(490,4)	(74,2)	(470,13)	(454,2)	
L1D -471>	(1,27)	(2,5)	(4,4)	(285,1)	(280,1)	(474,1)	(419,1)	(491,1)	(446,1)	(3,1)	(410,1)	(440,1)	(460,1)	(381,1)	(468,1)	(329,1)	
L1D -470>	(474,13)	(480,8)	(4,2)	(484,7)	(3,2)	(-1,3)	(492,4)	(488,12)	(466,2)	(2,9)	(462,7)	(464,12)	(470,16)	(496,3)	(450,1)	(0,6)	
L1D -469>	(1,39)	(407,1)	(466,3)	(282,1)	(3,8)	(2,7)	(436,1)	(392,1)	(484,1)	(459,2)	(333,1)	(401,1)	(454,1)	(350,1)	(470,2)	(423,1)	
L1D -468>	(488,1)	(462,0)	(0,10)	(470,0)	(472,0)	(2,0)	(42,127)	(478,0)	(84,18)	(452,0)	(476,0)	(466,0)	(468,0)	(126,8)	(496,0)	(168,1)	
L1D -467>	(1,12)	(42,100)	(84,15)	(126,6)	(450,1)	(355,1)	(458,2)	(3,7)	(32,1)	(359,1)	(478,1)	(0,12)	(354,1)	(436,1)	(-1,3)	(15,2)	
L1D -466>	(1,28)	(470,18)	(448,9)	(2,9)	(300,1)	(476,7)	(466,13)	(474,9)	(486,7)	(446,5)	(480,11)	(482,5)	(478,11)	(454,8)	(472,7)	(460,9)	
L1D -465>	(3,2)	(42,1)	(1,13)	(460,2)	(-42,1)	(348,1)	(476,2)	(90,1)	(454,2)	(451,1)	(456,2)	(494,1)	(2,6)	(298,1)	(472,2)	(384,1)	
L1D -464>	(1,6)	(470,13)	(464,13)	(460,7)	(208,1)	(3,5)	(456,9)	(452,9)	(482,6)	(472,9)	(466,13)	(462,8)	(446,4)	(484,2)	(7,4)	(474,9)	
L1D -463>	(1,9)	(57,2)	(-1,3)	(7,2)	(277,1)	(384,1)	(454,1)	(453,1)	(226,1)	(470,1)	(304,1)	(-42,1)	(290,1)	(458,2)	(2,3)	(366,1)	
L1D -462>	(1,10)	(466,15)	(464,19)	(474,7)	(472,13)	(470,13)	(462,9)	(460,17)	(442,4)	(456,13)	(458,16)	(446,6)	(30,2)	(448,8)	(468,7)	(2,2)	
L1D -461>	(1,17)	(4,2)	(387,1)	(470,3)	(343,1)	(487,1)	(296,1)	(376,1)	(309,1)	(458,1)	(-50,1)	(486,1)	(405,1)	(402,1)	(442,2)	(365,1)	
L1D -460>	(2,12)	(472,6)	(470,8)	(461,8)	(456,11)	(452,8)	(1,16)	(462,14)	(454,3)	(434,3)	(450,18)	(458,1)	(480,6)	(466,17)	(464,15)	(444,5)	
L1D -459>	(82,2)	(4,2)	(1,10)	(438,1)	(491,1)	(0,1)	(303,1)	(448,1)	(464,1)	(347,1)	(418,1)	(472,1)	(378,1)	(428,1)	(120,1)	(338,1)	
L1D -458>	(470,9)	(1,3)	(462,15)	(-1,3)	(456,23)	(448,10)	(0,5)	(452,10)	(464,1)	(468,8)	(458,9)	(459,10)	(440,4)	(460,16)	(8,2)	(454,15)	
L1D -457>	(1,17)	(2,9)	(3,1)	(478,1)	(430,2)	(24,1)	(373,1)	(-1,2)	(4,1)	(331,2)	(-2,5)	(340,1)	(298,1)	(457,1)	(-42,1)	(442,1)	
L1D -456>	(1,19)	(458,11)	(474,5)	(-2,2)	(460,14)	(4,3)	(446,7)	(462,8)	(468,5)	(464,12)	(428,6)	(470,7)	(456,15)	(450,14)	(452,14)	(466,2)	
L1D -455>	(4,2)	(442,1)	(68,13)	(1,10)	(430,1)	(3,7)	(299,1)	(455,1)	(54,1)	(56,1)	(479,1)	(2,6)	(456,1)	(436,1)	(444,1)	(6,2)	
L1D -454>	(0,35)	(1,23)	(3,4)	(94,3)	(462,9)	(455,8)	(448,9)	(438,7)	(458,17)	(454,19)	(456,4)	(464,5)	(432,4)	(436,2)	(50,3)	(466,1)	
L1D -453>	(312,3)	(1,4)	(434,1)	(462,2)	(430,1)	(-56,2)	(5,3)	(446,2)	(408,1)	(505,1)	(0,1)	(261,1)	(459,1)	(436,1)	(17,1)	(321,1)	
L1D -452>	(446,14)	(97,2)	(38,10)	(454,10)	(4,6)	(440,9)	(444,15)	(150,3)	(456,8)	(263,2)	(453,5)	(428,3)	(468,5)	(472,3)	(442,11)	(450,1)	
L1D -451>	(1,13)	(2,11)	(3,5)	(37,19)	(262,2)	(426,1)	(367,1)	(274,1)	(394,1)	(38,1)	(324,2)	(452,2)	(-2,3)	(364,1)	(454,1)	(400,1)	
L1D -450>	(2,2)	(446,10)	(1,4)	(450,14)	(426,6)	(436,2)	(456,13)	(480,1)	(464,8)	(366,1)	(468,5)	(-34,1)	(462,9)	(448,13)	(472,4)	(22,1)	
L1D -449>	(460,3)	(1,9)	(448,4)	(5,2)	(68,108)	(456,2)	(2,2)	(471,1)	(250,1)	(444,1)	(383,1)	(-1,2)	(319,1)	(62,1)	(56,1)	(437,1)	
L1D -448>	(-42,4)	(452,10)	(442,13)	(446,11)	(1,7)	(68,6)	(426,3)	(444,14)	(438,14)	(436,8)	(454,17)	(450,8)	(458,1)	(4,2)	(440,11)	(449,9)	
L1D -447>	(420,1)	(1,16)	(-59,1)	(363,1)	(440,1)	(60,1)	(452,1)	(323,2)	(417,1)	(428,1)	(446,1)	(436,1)	(406,1)	(442,1)	(402,1)	(503,1)	
L1D -446>	(1,7)	(458,8)	(4,3)	(454,6)	(438,18)	(426,5)	(2,2)	(442,17)	(456,1)	(470,4)	(450,14)	(464,5)	(452,10)	(478,2)	(440,11)	(420,4)	
L1D -445>	(1,23)	(3,4)	(0,3)	(442,1)	(-16,1)	(190,1)	(434,4)	(8,1)	(315,1)	(197,1)	(-2,5)	(341,1)	(338,1)	(2,16)	(438,1)	(295,1)	
L1D -444>	(87,2)	(86,2)	(0,4)	(-65,1)	(440,14)	(412,1)	(448,13)	(434,7)	(446,13)	(2,3)	(-66,1)	(422,5)	(442,12)	(444,19)	(88,1)	(96,1)	
L1D -443>	(1,35)	(2,2)	(368,1)	(432,1)	(349,1)	(396,1)	(318,1)	(444,1)	(-1,3)	(339,1)	(442,2)	(440,1)	(150,1)	(425,1)	(504,1)	(403,1)	
L1D -442>	(1,12)	(440,12)	(0,5)	(428,7)	(444,14)	(2,3)	(458,3)	(426,6)	(430,6)	(434,13)	(436,4)	(339,1)	(446,8)	(420,3)	(124,3)	(-2,5)	
L1D -441>	(1,29)	(0,4)	(420,2)	(-68,1)	(430,1)	(470,1)	(-1,1)	(412,1)	(472,1)	(323,1)	(403,1)	(2,8)	(381,1)	(444,1)	(60,2)	(4,3)	
L1D -440>	(2,8)	(1,5)	(460,4)	(-42,3)	(428,6)	(420,4)	(442,3)	(432,16)	(430,6)	(438,7)	(450,1)	(436,13)	(412,1)	(156,1)	(446,22)	(452,7)	
L1D -439>	(1,8)	(6,2)	(3,5)	(298,1)	(446,2)	(0,2)	(438,3)	(440,1)	(2,6)	(353,1)	(337,1)	(379,1)	(467,1)	(-2,2)	(391,1)	(4,1)	
L1D -438>	(4,5)	(1,5)	(448,7)	(454,6)	(442,15)	(456,9)	(446,14)	(416,6)	(432,9)	(430,9)	(414,3)	(444,7)	(458,1)	(436,16)	(2,2)	(452,5)	
L1D -437>	(1,28)	(-2,3)	(503,2)	(406,1)	(297,1)	(447,1)	(424,1)	(2,5)	(88,1)	(0,2)	(394,1)	(-8,1)	(306,1)	(439,2)	(469,1)	(305,1)	
L1D -436>	(440,6)	(436,12)	(1,41)	(434,1)	(4,5)	(442,11)	(2,5)	(-1,2)	(420,7)	(426,12)	(430,8)	(432,6)	(57,1)	(456,9)	(452,13)	(-36,1)	
L1D -435>	(1,9)	(0,5)	(3,6)	(8,2)	(306,1)	(-74,1)	(276,3)	(287,1)	(440,1)	(255,1)	(-2,1)	(445,3)	(416,1)	(315,1)	(453,1)	(242,1)	
L1D -434>	(1,7)	(6,4)	(426,12)	(2,5)	(440,7)	(435,1)	(380,1)	(416,8)	(420,7)	(406,2)	(377,1)	(436,16)	(458,1)	(140,1)	(430,13)	(442,11)	
L1D -433>	(1,5)	(442,2)	(367,3)	(429,1)	(5,1)	(426,3)	(0,1)	(304,2)	(303,1)	(456,2)	(6,4)	(401,1)	(419,1)	(390,1)	(134,1)	(438,1)	
L1D -432>	(1,6)	(430,10)	(6,6)	(325,1)	(5,10)	(438,10)	(-42,2)	(420,7)	(428,6)	(436,6)	(440,10)	(124,2)	(444,6)	(2,5)	(442,7)	(3,2)	
L1D -431>	(1,6)	(-1,4)	(479,1)	(420,2)	(431,1)	(452,1)	(401,1)	(506,1)	(449,1)	(23,1)	(120,1)	(312,1)	(17,1)	(0,3)	(379,1)	(445,1)	
L1D -430>	(420,11)	(1,3)	(424,8)	(432,14)	(434,5)	(418,4)	(448,7)	(416,5)	(68,2)	(412,7)	(333,1)	(352,1)	(426,14)	(172,1)	(430,15)	(-44,2)	
L1D -429>	(1,7)	(-82,2)	(369,1)	(-29,1)	(-80,1)	(430,1)	(169,1)	(489,1)	(378,1)	(434,3)	(291,1)	(56,1)	(4,1)	(444,1)	(328,3)	(305,1)	
L1D -428>	(408,8)	(1,19)	(422,11)	(412,16)	(438,7)	(424,8)	(434,4)	(4,4)	(418,13)	(456,4)	(436,11)	(406,5)	(442,7)	(440,5)	(448,1)	(450,3)	
L1D -427>	(1,50)	(28,124)	(5,2)	(396,1)	(47,1)	(0,4)	(404,1)	(334,1)	(-83,2)	(425,1)	(292,1)	(40,1)	(257,1)	(2,1)	(376,1)	(375,1)	
L1D -426>	(1,54)	(27,56)	(440,8)	(4,19)	(42,37)	(420,9)	(2,25)	(416,12)	(418,1)	(422,17)	(442,7)	(426,14)	(5,4)	(448,5)	(424,4)	(406,7)	
L1D -425>	(2,6)	(1,14)	(-1,6)	(42,5)	(371,1)	(388,1)	(428,2)	(452,1)	(-2,2)	(5,2)	(412,1)	(280,1)	(68,2)	(457,1)	(3,18)	(507,1)	
L1D -424>	(1,26)	(2,15)	(434,12)	(428,17)	(410,10)	(-2,14)	(398,6)	(420,10)	(416,12)	(404,1)	(292,32)	(6,7)	(3,4)	(440,3)	(406,7)	(430,9)	
L1D -423>	(1,6)	(-88,2)	(0,4)	(105,2)	(-1,4)	(422,3)	(291,46)	(5,3)	(3,7)	(410,2)	(428,1)	(335,1)	(36,2)	(295,4)	(424,1)	(341,1)	
L1D -422>	(2,61)	(1,10)	(5,2)	(34,2)	(290,47)	(420,6)	(444,5)	(432,5)	(412,14)	(426,13)	(418,17)	(428,12)	(416,12)	(422,15)	(410,1)	(436,8)	
L1D -421>	(1,41)	(289,44)	(-2,7)	(388,2)	(262,1)	(375,2)	(283,1)	(363,1)	(294,1)	(313,1)	(422,3)	(428,1)	(392,2)	(-4,1)	(2,13)	(490,1)	
L1D -420>	(288,40)	(1,13)	(404,12)	(0,7)	(416,16)	(420,15)	(480,1)	(6,2)	(28,2)	(412,12)	(421,7)	(418,15)	(426,14)	(424,8)	(402,7)	(394,5)	
L1D -419>	(1,14)	(420,5)	(417,2)	(100,6)	(418,3)	(287,36)	(-1,5)	(96,2)	(11,2)	(2,4)	(3,4)	(416,14)	(292,1)	(395,2)	(-32,1)	(448,1)	
L1D -418>	(290,4)	(1,13)	(410,12)	(419,8)	(414,4)	(434,4)	(420,13)	(367,1)	(404,2)	(428,10)	(-2,7)	(424,11)	(418,21)	(436,8)	(286,40)	(408,11)	
L1D -417>	(-10,92)	(418,1)	(303,1)	(417,0)	(335,0)	(53,0)	(285,3)	(410,0)	(397,0)	(1,0)	(1,0)	(1,0)	(1,0)	(1,0)	(1,0)	(1,0)	
L1D -416>	(1,5)	(16,4)	(-46,1)	(418,12)	(412,16)	(422,10)	(428,11)	(424,13)	(396,2)	(392,4)	(420,11)	(408,17)	(284,34)	(400,8)	(432,3)	(416,3)	
L1D -415>	(1,8)	(3,3)	(414,1)	(400,3)	(0,3)	(287,8)	(2,5)	(385,1)	(283,46)	(-14,1)	(-96,2)	(490,1)	(350,1)	(337,1)	(429,1)	(408,2)	
L1D -414>	(424,10)	(418,11)	(420,15)	(38,2)	(430,11)	(404,8)	(415,2)	(414,1)	(1,6)	(4,5)	(3,5)	(282,40)	(410,17)	(416,17)	(286,7)	(408,11)	
L1D -413>	(1,12)	(285,5)	(3,11)	(2,12)	(0,3)	(413,3)	(281,39)	(-1,7)	(16,2)	(407,2)	(402,1)	(-7,1)	(91,1)	(416,2)	(266,1)	(-48,1)	
L1D -412>	(1,10)	(-2,5)	(2,3)	(404,13)	(9,2)	(418,1)	(422,15)	(400,9)	(402,11)	(410,11)	(394,8)	(396,10)	(414,11)	(361,1)	(280,45)	(428,4)	
L1D -411>	(0,115)	(406,1)	(-7,14)	(340,1)	(279,2)	(160,1)	(1,0)	(346,0)	(1,0)	(1,0)	(1,0)	(1,0)	(1,0)	(1,0)	(1,0)	(1,0)	
L1D -410>	(282,4)	(396,12)	(432,6)	(1,5)	(436,3)	(418,7)	(278,33)	(416,9)	(2,5)	(404,3)	(412,9)	(388,4)	(408,9)	(434,1)	(106,1)	(410,16)	
L1D -409>	(1,6)	(-2,7)	(410,3)	(3,1)	(422,1)	(277,39)	(449,1)	(494,1)	(252,1)	(281,5)	(7,1)	(15,1)	(0,3)	(293,1)	(416,1)	(2,2)	
L1D -408>	(280,8)	(412,7)	(402,13)	(424,13)	(404,17)	(422,7)	(390,11)	(1,6)	(400,5)	(118,1)	(410,13)	(276,37)	(396,11)	(2,5)	(0,7)	(420,6)	
L1D -407>	(1,21)	(407,4)	(279,3)	(492,1)	(275,41)	(2,3)	(345,2)	(337,1)	(-50,1)	(252,2)	(289,2)	(455,1)	(410,1)	(428,2)	(3,1)	(440,1)	
L1D -406>	(1,53)	(408,12)	(414,14)	(278,5)	(418,7)	(2,23)	(407,4)	(394,7)	(384,4)	(420,5)	(386,7)	(416,1)	(274,37)	(360,2)	(404,8)	(0,2)	
L1D -405>	(1,10)	(0,4)	(5,3)	(504,1)	(405,3)	(273,40)	(385,1)	(2,7)	(474,1)	(396,2)	(281,1)	(478,2)	(436,1)	(338,1)	(406,3)	(202,1)	
L1D -404>	(272,40)	(390,7)	(1,7)	(276,7)	(405,12)	(-37,1)	(382,6)	(376,4)	(386,2)	(392,5)	(404,18)	(2,3)	(4,2)	(412,13)	(414,6)	(402,4)	
L1D -403>	(1,10)	(485,1)	(0,3)	(292,1)	(275,9)	(271,41)	(-108,2)	(334,1)	(451,1)	(277,1)	(474,1)	(182,2)	(402,3)	(375,1)	(-19,1)	(412,1)	
L1D -402>	(400,15)	(274,6)	(0,6)	(-92,3)	(1,8)	(-37,1)	(402,14)	(404,7)	(374,2)	(370,2)	(418,5)	(408,12)	(403,8)	(410,8)	(414,7)	(270,25)	
L1D -401>	(1,10)	(401,3)	(269,40)	(3,2)	(420,1)	(402,1)	(386,1)	(273,4)	(390,1)	(159,1)	(296,2)	(236,1)	(252,1)	(494,1)	(322,1)	(301,1)	
L1D -400>	(268,34)	(408,12)	(1,15)	(390,7)	(401,8)	(382,5)	(402,12)	(410,7)	(400,13)	(386,9)	(0,8)	(414,9)	(412,1)	(404,6)	(392,13)	(398,10)	
L1D -399>	(271,8)	(1,10)	(267,46)	(308,2)	(-27,30)	(5,2)	(396,2)	(-2,2)	(316,1)	(324,1)	(365,2)	(0,4)	(2,5)	(259,1)	(11,1)	(400,2)	
L1D -398>	(396,12)	(2,5)	(-42,20)	(386,9)	(1,8)	(-1,4)	(402,6)	(408,4)	(392,15)	(398,20)	(266,50)	(384,6)	(422,2)	(394,1)	(300,1)	(-28,1)	
L1D -397>	(1,14)	(0,2)	(265,28)	(2,2)	(226,1)	(269,6)	(396,1)	(406,1)	(358,1)	(398,2)	(395,1)	(414,2)	(191,1)	(359,1)	(376,1)	(483,1)	
L1D -396>	(1,9)	(264,42)	(2,3)	(392,12)	(404,12)	(0,6)	(396,10)	(-50,1)	(3,3)	(412,5)	(402,8)	(400,9)	(388,16)	(406,10)	(380,9)	(390,6)	
L1D -395>	(396,2)	(1,14)	(317,1)	(83,1)	(445,1)	(186,1)	(6,3)	(395,4)	(2,2)	(431,1)	(263,38)	(0,3)	(369,1)	(17,1)	(465,1)	(388,1)	
L1D -394>	(400,10)	(7,2)	(266,5)	(388,17)	(406,7)	(1,7)	(2,5)	(5,2)	(376,7)	(394,8)	(0,3)	(370,3)	(392,10)	(262,48)	(349,1)	(352,1)	
L1D -393>	(261,44)	(1,10)	(0,3)	(344,2)	(176,1)	(321,2)	(361,1)	(406,1)	(-116,1)	(420,2)	(2,10)	(441,2)	(416,1)	(393,4)	(478,1)	(265,8)	
L1D -392>	(1,14)	(393,12)	(382,12)	(10,3)	(260,40)	(388,7)	(42,2)	(4,3)	(398,8)	(408,11)	(394,12)	(-22,2)	(386,12)	(400,5)	(392,12)	(428,1)	
L1D -391>	(1,9)	(364,1)	(263,7)	(200,1)	(-64,1)	(259,30)	(440,1)	(29,1)	(279,1)	(318,1)	(-1,3)	(-2,2)	(379,2)	(369,1)	(172,1)	(400,2)	
L1D -390>	(376,9)	(412,1)	(386,8)	(389,3)	(1,9)	(392,15)	(258,40)	(2,5)	(382,6)	(388,12)	(414,5)	(402,12)	(372,6)	(390,7)	(380,10)	(420,2)	
L1D -389>	(3,9)	(1,14)	(2,2)	(371,2)	(20,1)	(-30,1)	(0,4)	(367,1)	(257,38)	(278,1)	(-4,1)	(337,1)	(374,2)	(393,2)	(-2,2)	(388,3)	
L1D -388>	(260,6)	(1,11)	(6,5)	(382,14)	(430,2)	(400,13)	(402,9)	(256,42)	(404,9)	(2,10)	(394,9)	(389,10)	(396,1)	(428,1)	(366,4)	(-78,2)	
L1D -387>	(384,2)	(1,7)	(56,1)	(114,19)	(255,42)	(372,1)	(-22,1)	(409,1)	(364,2)	(-66,1)	(387,3)	(390,1)	(138,1)	(-122,1)	(264,1)	(301,1)	
L1D -386>	(386,112)	(0,13)	(-31,9)	(106,1)	(-68,1)	(254,3)	(394,1)	(402,1)	(380,1)	(-48,1)	(392,1)	(378,1)	(362,1)	(360,0)	(390,2)	(-96,0)	
L1D -385>	(3,2)	(1,15)	(449,1)	(386,3)	(396,1)	(497,1)	(367,1)	(385,2)	(253,41)	(366,1)	(433,1)	(0,9)	(398,1)	(344,1)	(2,9)	(5,1)	
L1D -384>	(1,11)	(384,11)	(252,41)	(176,1)	(256,3)	(418,1)	(-1,2)	(386,17)	(368,7)	(385,8)	(380,9)	(376,14)	(396,12)	(362,5)	(392,12)	(370,10)	
L1D -383>	(3,5)	(1,18)	(497,1)	(-54,1)	(-70,1)	(90,2)	(428,1)	(292,1)	(251,24)	(255,3)	(375,1)	(348,1)	(341,1)	(2,8)	(384,1)	(372,2)	
L1D -382>	(250,15)	(388,12)	(372,6)	(254,2)	(0,5)	(1,2)	(382,21)	(362,4)	(374,12)	(376,8)	(368,8)	(383,4)	(384,8)	(370,2)	(386,19)	(339,1)	
L1D -381>	(1,54)	(249,24)	(2,13)	(114,112)	(198,1)	(481,1)	(152,7)	(4,4)	(5,1)	(374,1)	(-128,1)	(303,1)	(357,1)	(336,1)	(248,1)	(-20,1)	
L1D -380>	(1,28)	(380,17)	(366,8)	(2,9)	(378,13)	(381,4)	(0,4)	(386,1)	(396,5)	(252,2)	(3,2)	(370,11)	(6,3)	(248,7)	(-84,2)	(372,3)	
L1D -379>	(1,24)	(2,14)	(473,1)	(9,1)	(358,1)	(382,3)	(247,13)	(418,1)	(365,1)	(488,1)	(0,4)	(325,1)	(3,2)	(-5,1)	(277,1)	(384,1)	
L1D -378>	(1,33)	(402,5)	(384,11)	(358,4)	(246,5)	(386,12)	(382,8)	(2,9)	(396,6)	(370,3)	(362,1)	(374,11)	(0,4)	(364,3)	(356,3)	(372,13)	
L1D -377>	(2,3)	(1,9)	(384,1)	(370,1)	(245,5)	(0,3)	(366,1)	(240,1)	(371,1)	(418,3)	(110,4)	(-2,1)	(-12,1)	(24,1)	(3,5)	(265,1)	
L1D -376>	(394,5)	(1,8)	(-92,1)	(390,8)	(382,17)	(380,14)	(378,14)	(-54,1)	(364,13)	(368,12)	(52,1)	(376,13)	(-1,3)	(324,1)	(345,2)	(-2,3)	
L1D -375>	(0,6)	(5,2)	(436,2)	(2,3)	(473,1)	(1,6)	(374,1)	(338,2)	(410,1)	(497,1)	(331,1)	(-98,1)	(-131,1)	(87,1)	(450,2)	(337,2)	
L1D -374>	(388,5)	(375,9)	(376,10)	(1,11)	(384,10)	(364,11)	(368,13)	(2,2)	(370,2)	(64,1)	(362,10)	(374,12)	(-46,1)	(332,1)	(348,4)	(477,1)	
L1D -373>	(1,11)	(5,2)	(428,1)	(300,1)	(370,6)	(238,1)	(0,4)	(382,1)	(3,3)	(102,1)	(273,1)	(6,2)	(-1,3)	(9,1)	(108,1)	(128,1)	
L1D -372>	(1,9)	(382,7)	(374,17)	(368,9)	(346,3)	(392,6)	(2,3)	(358,2)	(0,7)	(4,3)	(366,13)	(350,3)	(370,11)	(372,14)	(166,1)	(378,16)	
L1D -371>	(72,10)	(3,4)	(1,24)	(371,4)	(329,2)	(302,1)	(-1,4)	(364,2)	(0,6)	(453,1)	(389,1)	(384,1)	(419,1)	(400,1)	(435,1)	(427,1)	
L1D -370>	(25,27)	(376,15)	(1,16)	(3,8)	(370,12)	(364,13)	(352,1)	(360,13)	(62,2)	(358,10)	(2,11)	(362,10)	(382,10)	(356,4)	(380,10)	(390,6)	
L1D -369>	(321,1)	(1,5)	(4,2)	(296,1)	(2,5)	(0,2)	(368,2)	(384,1)	(444,1)	(-114,1)	(-6,1)	(313,1)	(309,1)	(401,2)	(353,1)	(436,1)	
L1D -368>	(1,14)	(382,9)	(372,16)	(356,11)	(3,4)	(354,11)	(92,1)	(389,1)	(368,18)	(366,9)	(296,1)	(398,1)	(369,5)	(475,1)	(94,1)	(378,10)	
L1D -367>	(23,2)	(1,42)	(335,1)	(354,1)	(3,4)	(8,1)	(2,20)	(357,1)	(5,6)	(22,1)	(-144,2)	(-3,1)	(24,1)	(-42,1)	(489,1)	(260,1)	
L1D -366>	(3,5)	(376,17)	(2,12)	(6,3)	(372,19)	(1,22)	(354,1)	(8,9)	(370,15)	(392,2)	(0,5)	(374,2)	(360,14)	(386,5)	(364,11)	(368,5)	
L1D -365>	(1,28)	(3,5)	(2,8)	(420,1)	(336,1)	(60,15)	(368,1)	(432,1)	(356,2)	(231,1)	(4,4)	(382,1)	(311,2)	(346,1)	(66,1)	(369,2)	
L1D -364>	(2,8)	(360,12)	(52,37)	(346,6)	(50,5)	(350,8)	(372,13)	(386,6)	(366,1)	(368,15)	(365,7)	(51,28)	(354,7)	(1,9)	(362,9)	(356,4)	
L1D -363>	(1,12)	(358,4)	(51,44)	(-1,4)	(360,3)	(-52,1)	(18,1)	(388,1)	(3,6)	(-98,1)	(423,1)	(0,5)	(361,5)	(2,3)	(75,62)	(355,3)	
L1D -362>	(1,13)	(360,8)	(50,16)	(3,7)	(362,10)	(352,10)	(372,8)	(342,3)	(356,8)	(350,9)	(358,16)	(354,10)	(376,10)	(346,2)	(348,4)	(364,1)	
L1D -361>	(1,16)	(0,7)	(374,3)	(362,5)	(5,3)	(343,3)	(354,2)	(50,3)	(6,2)	(51,2)	(450,1)	(-2,4)	(2,4)	(361,1)	(107,1)	(339,1)	
L1D -360>	(48,42)	(368,13)	(7,3)	(64,4)	(354,15)	(360,14)	(47,30)	(382,6)	(2,4)	(1,11)	(358,21)	(376,6)	(364,8)	(362,1)	(24,2)	(23,4)	
L1D -359>	(60,77)	(1,8)	(-1,3)	(3,5)	(47,26)	(0,2)	(282,1)	(359,1)	(360,1)	(455,1)	(389,1)	(364,2)	(311,1)	(6,1)	(51,1)	(347,1)	
L1D -358>	(1,24)	(46,16)	(352,1)	(25,4)	(368,13)	(372,6)	(358,9)	(364,13)	(363,7)	(27,3)	(370,5)	(346,11)	(330,3)	(6,5)	(2,2)	(340,8)	
L1D -357>	(2,2)	(48,3)	(45,3)	(1,7)	(283,2)	(351,4)	(352,4)	(302,1)	(464,1)	(408,1)	(460,1)	(390,1)	(393,1)	(389,3)	(357,2)	(-153,1)	
L1D -356>	(1,9)	(342,9)	(366,7)	(360,11)	(38,1)	(47,8)	(372,4)	(364,13)	(357,10)	(352,11)	(343,5)	(356,13)	(344,13)	(368,12)	(362,12)	(350,13)	
L1D -355>	(1,26)	(2,10)	(344,2)	(43,5)	(56,3)	(352,3)	(338,2)	(364,2)	(313,1)	(348,2)	(359,4)	(355,3)	(389,1)	(-126,1)	(3,3)	(434,1)	
L1D -354>	(354,10)	(1,12)	(374,4)	(380,3)	(7,2)	(370,12)	(344,13)	(358,15)	(34,3)	(352,2)	(355,8)	(338,4)	(346,10)	(364,11)	(356,1)	(366,8)	
L1D -353>	(1,35)	(354,2)	(360,4)	(339,2)	(249,2)	(2,3)	(348,3)	(33,2)	(24,2)	(0,3)	(-7,1)	(270,1)	(470,1)	(442,1)	(64,1)	(6,6)	
L1D -352>	(356,11)	(1,14)	(344,9)	(354,10)	(215,1)	(0,6)	(352,17)	(50,2)	(346,9)	(348,16)	(353,11)	(-1,9)	(35,2)	(340,5)	(330,3)	(2,6)	
L1D -351>	(364,4)	(479,1)	(1,15)	(447,1)	(2,6)	(362,2)	(254,1)	(330,2)	(39,3)	(5,2)	(414,2)	(24,1)	(348,2)	(395,1)	(326,2)	(3,2)	
L1D -350>	(342,11)	(2,4)	(356,10)	(7,2)	(44,3)	(351,4)	(348,9)	(1,10)	(350,2)	(376,4)	(336,1)	(80,3)	(364,12)	(72,1)	(476,1)	(344,11)	
L1D -349>	(1,6)	(-2,9)	(6,3)	(338,3)	(340,1)	(68,1)	(356,1)	(351,2)	(396,1)	(300,2)	(495,1)	(24,1)	(277,1)	(305,2)	(0,3)	(81,1)	
L1D -348>	(350,10)	(0,7)	(364,6)	(330,6)	(360,10)	(354,13)	(326,1)	(338,12)	(2,3)	(342,14)	(11,3)	(352,14)	(422,2)	(334,8)	(340,10)	(344,7)	
L1D -347>	(0,4)	(357,1)	(98,1)	(44,1)	(1,6)	(360,4)	(109,1)	(364,3)	(462,1)	(296,1)	(347,3)	(387,1)	(-2,1)	(358,1)	(-4,1)	(84,2)	
L1D -346>	(374,1)	(341,22)	(4,105)	(0,13)	(346,2)	(340,2)	(344,1)	(362,1)	(348,1)	(358,1)	(364,2)	(50,1)	(366,1)	(336,1)	(334,1)	(354,1)	
L1D -345>	(1,8)	(2,6)	(342,1)	(286,1)	(0,5)	(-47,18)	(345,3)	(22,9)	(5,3)	(23,25)	(344,1)	(-163,1)	(289,1)	(357,2)	(-22,1)	(21,1)	
L1D -344>	(348,9)	(1,19)	(356,10)	(338,9)	(346,17)	(336,13)	(352,2)	(342,8)	(370,2)	(318,3)	(350,14)	(396,1)	(344,15)	(374,1)	(340,12)	(416,4)	
L1D -343>	(1,3)	(338,111)	(-3,50)	(320,1)	(-89,1)	(0,1)	(343,1)	(374,1)	(321,1)	(364,0)	(346,0)	(314,0)	(332,1)	(493,0)	(6,1)	(342,0)	
L1D -342>	(337,22)	(-4,27)	(1,15)	(346,13)	(350,15)	(340,13)	(338,9)	(326,6)	(352,5)	(334,14)	(354,13)	(348,16)	(3,8)	(0,1)	(328,5)	(342,8)	
L1D -341>	(328,1)	(0,57)	(341,20)	(5,55)	(124,0)	(4,74)	(-20,0)	(346,1)	(324,0)	(364,0)	(494,0)	(1,0)	(46,0)	(3,0)	(298,0)	(350,0)	
L1D -340>	(1,8)	(418,1)	(336,8)	(0,10)	(2,3)	(356,13)	(332,10)	(334,13)	(342,10)	(340,23)	(3,4)	(338,10)	(362,2)	(352,8)	(-1,2)	(328,7)	
L1D -339>	(26,20)	(1,11)	(27,10)	(357,2)	(350,2)	(336,5)	(255,1)	(338,10)	(488,1)	(273,1)	(-40,1)	(422,2)	(0,4)	(351,1)	(-170,1)	(369,1)	
L1D -338>	(1,16)	(-3,65)	(338,11)	(346,5)	(337,3)	(332,5)	(334,3)	(342,10)	(336,3)	(339,1)	(354,4)	(26,5)	(6,1)	(320,3)	(348,6)	(330,6)	
L1D -337>	(342,82)	(104,4)	(117,113)	(-4,29)	(167,14)	(25,1)	(114,89)	(0,2)	(20,1)	(308,1)	(3,1)	(24,2)	(276,1)	(417,1)	(26,1)	(1,2)	
L1D -336>	(341,6)	(342,14)	(330,10)	(326,9)	(2,3)	(1,23)	(24,19)	(8,2)	(9,6)	(318,5)	(356,3)	(338,25)	(348,10)	(332,12)	(52,1)	(320,6)	
L1D -335>	(1,13)	(3,3)	(203,10)	(6,1)	(460,1)	(326,1)	(23,8)	(0,4)	(313,5)	(502,1)	(334,7)	(4,5)	(433,1)	(346,1)	(24,1)	(88,1)	
L1D -334>	(1,15)	(202,22)	(3,10)	(344,9)	(342,16)	(332,20)	(2,7)	(328,14)	(335,8)	(324,11)	(340,16)	(468,1)	(-2,7)	(338,12)	(22,5)	(326,16)	
L1D -333>	(360,1)	(201,19)	(5,4)	(1,13)	(35,1)	(336,2)	(328,2)	(313,5)	(-36,1)	(505,1)	(498,1)	(24,1)	(334,1)	(355,1)	(-1,2)	(483,1)	
L1D -332>	(1,22)	(200,19)	(20,14)	(354,5)	(333,12)	(320,12)	(338,7)	(326,11)	(328,12)	(318,4)	(312,1)	(302,3)	(330,8)	(332,12)	(336,12)	(11,2)	
L1D -331>	(1,17)	(331,8)	(325,2)	(107,2)	(106,2)	(199,20)	(101,2)	(3,8)	(42,6)	(4,3)	(2,4)	(43,16)	(93,2)	(29,2)	(447,2)	(350,1)	
L1D -330>	(4,8)	(330,15)	(0,8)	(1,26)	(320,1)	(342,12)	(198,21)	(328,10)	(331,6)	(318,6)	(348,7)	(6,2)	(332,14)	(312,7)	(18,5)	(322,8)	
L1D -329>	(17,6)	(1,28)	(338,2)	(3,8)	(2,7)	(376,2)	(7,3)	(421,1)	(343,2)	(6,3)	(319,2)	(-1,1)	(0,10)	(287,1)	(334,3)	(197,16)	
L1D -328>	(15,70)	(22,59)	(328,1)	(4,1)	(313,1)	(324,0)	(0,1)	(296,0)	(342,0)	(2,0)	(16,1)	(320,0)	(334,1)	(332,0)	(312,1)	(340,0)	
L1D -327>	(15,4)	(308,4)	(1,16)	(-23,2)	(2,2)	(0,5)	(195,23)	(327,76)	(282,1)	(290,2)	(286,1)	(365,1)	(-67,1)	(-1,1)	(8,2)	(313,5)	
L1D -326>	(3,8)	(-56,3)	(1,11)	(194,47)	(342,10)	(336,9)	(324,20)	(313,15)	(338,7)	(334,1)	(4,12)	(330,12)	(322,14)	(0,7)	(328,11)	(312,12)	
L1D -325>	(193,9)	(202,1)	(48,1)	(449,1)	(2,2)	(325,1)	(58,2)	(1,4)	(326,1)	(13,75)	(-15,3)	(-14,16)	(60,1)	(358,1)	(0,4)	(-43,1)	
L1D -324>	(-42,1)	(324,11)	(12,4)	(0,8)	(1,12)	(192,27)	(330,16)	(332,9)	(323,4)	(320,16)	(2,2)	(326,12)	(304,7)	(325,8)	(328,9)	(322,21)	
L1D -323>	(1,9)	(-54,2)	(0,12)	(11,11)	(6,3)	(-91,2)	(10,2)	(191,42)	(3,2)	(300,1)	(313,7)	(216,1)	(-1,7)	(7,1)	(-6,1)	(-64,1)	
L1D -322>	(-4,7)	(1,12)	(308,11)	(314,10)	(342,11)	(310,6)	(302,5)	(326,18)	(10,10)	(292,3)	(318,2)	(322,20)	(316,13)	(324,11)	(2,14)	(190,38)	
L1D -321>	(1,9)	(3,2)	(-37,1)	(449,1)	(0,10)	(189,29)	(146,1)	(2,4)	(120,1)	(384,1)	(261,1)	(321,1)	(336,1)	(-189,1)	(12,2)	(428,1)	
L1D -320>	(0,12)	(320,6)	(1,12)	(188,31)	(316,7)	(296,2)	(321,10)	(330,1)	(324,14)	(-2,2)	(300,5)	(306,6)	(98,1)	(328,7)	(-158,1)	(3,2)	
L1D -319>	(-1,11)	(-2,7)	(1,26)	(-62,2)	(3,8)	(187,32)	(2,5)	(0,6)	(-18,16)	(318,4)	(6,1)	(329,1)	(20,3)	(316,1)	(384,1)	(24,1)	
L1D -318>	(1,23)	(324,11)	(322,8)	(186,23)	(314,8)	(92,2)	(330,8)	(114,1)	(318,13)	(2,3)	(332,12)	(-40,1)	(342,2)	(4,12)	(338,7)	(320,12)	
L1D -317>	(1,26)	(6,9)	(313,13)	(384,1)	(4,3)	(185,33)	(7,4)	(315,6)	(314,16)	(3,7)	(0,11)	(2,9)	(5,4)	(316,13)	(-1,2)	(340,2)	
L1D -316>	(1,24)	(314,19)	(0,9)	(184,28)	(313,85)	(-124,1)	(306,12)	(312,16)	(318,5)	(316,12)	(320,22)	(310,17)	(4,14)	(5,4)	(-2,8)	(324,8)	
L1D -315>	(1,23)	(183,24)	(-45,12)	(311,12)	(-41,3)	(3,54)	(316,10)	(-49,6)	(4,6)	(5,4)	(318,1)	(309,8)	(310,7)	(303,6)	(314,12)	(2,8)	
L1D -314>	(2,23)	(1,34)	(182,25)	(318,10)	(42,1)	(296,7)	(326,7)	(312,16)	(316,14)	(313,9)	(298,8)	(5,13)	(304,19)	(310,25)	(314,6)	(300,7)	
L1D -313>	(1,30)	(0,14)	(313,95)	(-2,22)	(310,46)	(495,1)	(6,3)	(314,28)	(-1,21)	(309,24)	(311,79)	(305,10)	(317,4)	(308,11)	(298,11)	(312,31)	
L1D -312>	(315,105)	(311,120)	(-48,10)	(313,74)	(462,1)	(310,94)	(300,32)	(316,66)	(3,27)	(308,50)	(318,49)	(326,15)	(309,75)	(323,27)	(10,14)	(1,22)	
L1D -311>	(1,25)	(-6,8)	(294,35)	(0,7)	(308,9)	(179,28)	(313,12)	(332,7)	(-37,5)	(-1,120)	(2,6)	(318,13)	(9,2)	(316,1)	(319,12)	(324,3)	
L1D -310>	(1,4)	(313,8)	(310,2)	(324,1)	(4,1)	(2,2)	(312,12)	(292,3)	(-2,65)	(304,8)	(309,6)	(320,1)	(302,5)	(308,6)	(330,1)	(314,7)	
L1D -309>	(1,17)	(-48,13)	(38,2)	(312,6)	(6,5)	(-1,7)	(3,8)	(2,2)	(444,2)	(316,39)	(311,6)	(479,1)	(-3,29)	(24,2)	(0,6)	(-13,2)	
L1D -308>	(310,15)	(1,11)	(304,10)	(176,36)	(308,15)	(280,4)	(312,21)	(14,2)	(314,6)	(3,6)	(292,1)	(-54,1)	(2,4)	(328,3)	(316,14)	(306,18)	
L1D -307>	(1,9)	(0,4)	(290,2)	(320,3)	(6,2)	(-5,10)	(175,37)	(-2,5)	(3,7)	(-1,2)	(396,1)	(297,1)	(282,2)	(324,1)	(-111,2)	(461,1)	
L1D -306>	(0,80)	(304,1)	(314,1)	(306,11)	(151,2)	(310,1)	(300,0)	(27,0)	(312,1)	(-176,0)	(328,0)	(330,0)	(302,0)	(294,0)	(-26,0)	(290,0)	
L1D -305>	(306,9)	(1,20)	(308,6)	(173,50)	(311,2)	(151,2)	(455,1)	(447,1)	(0,14)	(321,8)	(339,1)	(24,5)	(433,1)	(26,1)	(3,3)	(43,3)	
L1D -304>	(302,17)	(290,9)	(314,1)	(172,50)	(1,34)	(0,13)	(-8,5)	(308,12)	(324,8)	(298,11)	(2,2)	(304,6)	(-2,2)	(296,17)	(294,10)	(286,6)	
L1D -303>	(305,4)	(1,20)	(-20,2)	(-9,11)	(311,5)	(171,41)	(-71,2)	(323,1)	(291,1)	(-2,3)	(-4,4)	(-48,3)	(-92,1)	(0,13)	(306,2)	(3,2)	
L1D -302>	(1,14)	(54,2)	(0,10)	(19,2)	(306,7)	(324,2)	(310,10)	(274,2)	(2,4)	(170,57)	(52,2)	(294,2)	(304,16)	(300,9)	(354,1)	(290,5)	
L1D -301>	(-1,3)	(2,16)	(1,21)	(6,8)	(474,1)	(304,6)	(326,4)	(-11,8)	(311,6)	(169,36)	(3,3)	(303,4)	(-4,10)	(0,8)	(306,5)	(5,2)	
L1D -300>	(42,9)	(1,13)	(302,9)	(286,5)	(294,3)	(314,6)	(288,6)	(2,4)	(4,3)	(301,10)	(316,7)	(312,3)	(492,1)	(-38,2)	(300,16)	(168,59)	
L1D -299>	(321,70)	(3,2)	(167,48)	(0,10)	(327,6)	(1,14)	(-110,2)	(-2,2)	(-13,7)	(2,3)	(311,2)	(310,5)	(183,1)	(-102,2)	(14,4)	(330,1)	
L1D -298>	(1,14)	(288,15)	(166,70)	(2,14)	(292,13)	(316,6)	(-2,14)	(282,4)	(290,12)	(270,2)	(302,6)	(-104,1)	(296,19)	(0,17)	(310,9)	(3,7)	
L1D -297>	(26,7)	(361,1)	(1,11)	(165,66)	(308,2)	(-20,2)	(2,5)	(0,12)	(-90,2)	(9,4)	(24,7)	(4,3)	(297,3)	(-15,13)	(69,2)	(6,6)	
L1D -296>	(0,15)	(5,1)	(298,9)	(1,9)	(-16,4)	(302,6)	(304,18)	(164,68)	(278,3)	(294,12)	(286,12)	(310,11)	(292,11)	(314,7)	(332,2)	(296,12)	
L1D -295>	(0,3)	(1,8)	(284,3)	(2,7)	(6,10)	(-17,8)	(-1,2)	(-2,3)	(19,3)	(4,2)	(3,2)	(-122,3)	(311,2)	(319,1)	(261,1)	(163,47)	
L1D -294>	(108,2)	(112,2)	(-2,3)	(314,2)	(1,24)	(302,9)	(297,2)	(162,49)	(296,9)	(0,14)	(272,7)	(298,4)	(14,1)	(292,9)	(308,6)	(463,1)	
L1D -293>	(2,8)	(342,2)	(1,11)	(6,8)	(290,5)	(0,14)	(16,4)	(-19,4)	(15,2)	(13,2)	(-20,5)	(365,2)	(24,10)	(-1,1)	(66,1)	(161,48)	
L1D -292>	(-76,3)	(160,64)	(1,26)	(393,1)	(-102,4)	(296,20)	(308,2)	(311,2)	(292,19)	(293,19)	(310,7)	(304,8)	(312,8)	(286,10)	(2,2)	(284,16)	
L1D -291>	(-86,3)	(159,116)	(-126,3)	(-124,1)	(0,1)	(-131,3)	(-125,1)	(-109,2)	(-127,1)	(131,1)	(-99,4)	(-101,3)	(-110,2)	(301,1)	(-105,2)	(292,1)	
L1D -290>	(158,92)	(306,1)	(-107,1)	(1,6)	(291,1)	(318,1)	(-93,1)	(292,1)	(-95,1)	(-104,1)	(288,1)	(-124,1)	(-98,1)	(296,1)	(280,1)	(290,1)	
L1D -289>	(-89,1)	(157,125)	(-103,2)	(-98,1)	(-93,3)	(-96,1)	(-91,3)	(-122,1)	(293,1)	(-123,0)	(-92,0)	(9,0)	(-134,0)	(289,0)	(1,4)	(-97,0)	
L1D -288>	(156,79)	(-92,1)	(294,1)	(-127,1)	(-105,1)	(-182,1)	(280,1)	(-104,1)	(2,1)	(282,1)	(-70,1)	(-128,0)	(471,0)	(-134,0)	(-129,0)	(308,0)	
L1D -287>	(-108,1)	(155,125)	(-91,2)	(-111,1)	(-119,1)	(-120,1)	(-106,1)	(-134,1)	(354,1)	(-105,1)	(-133,0)	(-92,0)	(-124,0)	(-115,0)	(6,0)	(-109,0)	
L1D -286>	(154,120)	(-127,2)	(1,1)	(-97,1)	(-107,1)	(-111,1)	(-114,2)	(-124,1)	(-126,1)	(-128,1)	(-112,1)	(-102,1)	(-96,1)	(-99,1)	(-118,1)	(-122,1)	
L1D -285>	(153,127)	(-121,1)	(37,1)	(-110,2)	(-96,1)	(-131,1)	(-97,1)	(-118,1)	(-139,1)	(-126,1)	(387,1)	(-54,1)	(-129,1)	(-120,1)	(5,0)	(-127,0)	
L1D -284>	(-119,1)	(152,114)	(-124,2)	(-136,1)	(-16,1)	(398,1)	(268,1)	(-113,1)	(-111,1)	(-121,1)	(-122,1)	(-102,1)	(290,1)	(-105,1)	(-96,0)	(-99,1)	
L1D -283>	(278,1)	(151,111)	(341,1)	(-120,1)	(-141,1)	(-114,1)	(-98,0)	(-103,0)	(477,0)	(353,0)	(-118,0)	(-117,0)	(-116,1)	(254,0)	(-122,2)	(-129,0)	
L1D -282>	(150,99)	(0,1)	(-121,2)	(-105,1)	(-117,1)	(-126,2)	(-133,1)	(-115,1)	(-111,1)	(-116,1)	(278,1)	(-12,1)	(282,1)	(-132,1)	(19,1)	(448,1)	
L1D -281>	(149,105)	(388,1)	(-141,1)	(467,1)	(-117,1)	(-132,1)	(-142,1)	(-122,1)	(-104,1)	(-101,1)	(-124,1)	(-125,1)	(-119,1)	(-143,0)	(-113,0)	(-130,0)	
L1D -280>	(270,1)	(-126,1)	(148,92)	(-130,1)	(-114,1)	(-2,1)	(-119,1)	(304,1)	(262,1)	(228,0)	(-137,2)	(-127,0)	(-74,0)	(-121,1)	(-103,0)	(-106,0)	
L1D -279>	(147,88)	(-135,1)	(-104,1)	(-105,0)	(-107,0)	(-140,0)	(-129,0)	(6,0)	(-139,0)	(-131,0)	(-108,0)	(-112,0)	(2,0)	(-110,0)	(-113,0)	(281,0)	
L1D -278>	(19,1)	(146,97)	(-136,2)	(284,1)	(270,1)	(272,1)	(-107,2)	(254,1)	(-131,1)	(-135,1)	(290,1)	(-110,1)	(286,2)	(-144,1)	(-133,1)	(20,1)	
L1D -277>	(0,54)	(145,71)	(277,2)	(273,21)	(-126,1)	(240,1)	(484,1)	(-110,0)	(-112,0)	(467,0)	(-125,0)	(-115,0)	(-113,0)	(-124,0)	(-132,0)	(-143,0)	
L1D -276>	(144,115)	(260,1)	(19,1)	(-142,2)	(270,1)	(6,1)	(372,1)	(276,1)	(-109,1)	(148,1)	(278,1)	(2,2)	(-124,1)	(-108,1)	(-136,1)	(-116,1)	
L1D -275>	(143,113)	(6,1)	(-139,1)	(-147,1)	(-131,1)	(128,1)	(-117,1)	(507,0)	(0,2)	(-140,1)	(-132,0)	(-129,1)	(2,1)	(-124,0)	(1,2)	(-122,0)	
L1D -274>	(142,127)	(-127,1)	(-88,1)	(-137,1)	(284,3)	(-120,2)	(1,1)	(-114,1)	(274,1)	(264,1)	(302,1)	(-188,1)	(-141,2)	(-129,1)	(280,2)	(-138,1)	
L1D -273>	(277,22)	(15,2)	(141,85)	(-125,1)	(-144,2)	(-116,2)	(-141,1)	(411,1)	(341,1)	(-132,1)	(6,1)	(-118,1)	(-135,1)	(-121,1)	(-147,1)	(1,3)	
L1D -272>	(140,64)	(-132,1)	(270,0)	(1,1)	(276,2)	(506,0)	(0,1)	(300,0)	(203,0)	(278,1)	(260,1)	(-149,0)	(172,0)	(-1,1)	(266,1)	(268,1)	
L1D -271>	(139,76)	(-141,1)	(271,1)	(-126,1)	(-131,0)	(0,4)	(272,0)	(-135,0)	(-147,0)	(-137,0)	(403,1)	(284,0)	(-122,0)	(-127,0)	(435,0)	(1,1)	
L1D -270>	(138,102)	(276,1)	(1,3)	(278,1)	(402,3)	(274,2)	(292,1)	(270,1)	(284,3)	(272,3)	(271,2)	(290,2)	(-90,1)	(282,1)	(20,2)	(286,1)	
L1D -269>	(26,2)	(137,112)	(4,1)	(-20,1)	(3,78)	(13,7)	(401,3)	(-134,2)	(0,5)	(1,2)	(410,1)	(216,1)	(268,2)	(-141,2)	(284,1)	(291,1)	
L1D -268>	(266,8)	(10,1)	(258,6)	(272,11)	(20,25)	(0,15)	(6,6)	(2,25)	(280,6)	(136,44)	(292,2)	(19,52)	(274,13)	(4,4)	(5,7)	(269,19)	
L1D -267>	(1,12)	(420,73)	(412,63)	(135,48)	(268,1)	(19,2)	(24,8)	(411,24)	(271,10)	(252,1)	(274,2)	(263,9)	(344,2)	(-96,1)	(8,1)	(-26,1)	
L1D -266>	(19,31)	(254,12)	(252,1)	(1,12)	(269,4)	(0,15)	(134,57)	(266,14)	(256,17)	(3,3)	(264,6)	(268,22)	(272,15)	(230,2)	(274,11)	(278,9)	
L1D -265>	(2,2)	(262,1)	(-2,1)	(1,4)	(269,3)	(0,4)	(133,17)	(397,1)	(-197,1)	(256,1)	(6,2)	(-3,2)	(265,2)	(280,1)	(264,65)	(3,1)	
L1D -264>	(132,49)	(272,5)	(1,61)	(262,16)	(396,6)	(2,42)	(270,21)	(256,10)	(0,16)	(-12,4)	(5,40)	(268,12)	(260,1)	(12,2)	(276,9)	(4,5)	
L1D -263>	(258,2)	(1,29)	(9,2)	(267,6)	(24,19)	(26,5)	(0,33)	(29,2)	(131,58)	(390,2)	(263,4)	(2,4)	(3,4)	(4,2)	(7,1)	(52,2)	
L1D -262>	(1,4)	(266,15)	(270,6)	(20,14)	(-1,2)	(0,7)	(130,32)	(2,6)	(264,9)	(244,4)	(-3,103)	(3,77)	(274,7)	(254,5)	(268,3)	(-161,1)	
L1D -261>	(24,8)	(129,59)	(26,41)	(254,2)	(-139,2)	(1,15)	(0,16)	(3,4)	(5,4)	(-141,1)	(-20,3)	(393,6)	(-140,1)	(10,7)	(96,1)	(-1,4)	
L1D -260>	(-1,10)	(0,12)	(1,16)	(4,6)	(2,12)	(-5,91)	(392,1)	(128,56)	(3,4)	(272,11)	(264,16)	(262,11)	(266,12)	(256,8)	(254,9)	(242,5)	
L1D -259>	(1,22)	(3,18)	(-2,9)	(127,42)	(108,2)	(10,4)	(0,14)	(263,9)	(2,6)	(13,2)	(261,3)	(-5,24)	(220,8)	(258,2)	(24,3)	(-26,1)	
L1D -258>	(250,1)	(62,124)	(262,6)	(1,35)	(2,1)	(256,1)	(126,12)	(270,4)	(4,2)	(258,2)	(390,3)	(0,3)	(219,1)	(252,1)	(248,3)	(272,1)	
L1D -257>	(0,52)	(98,77)	(262,2)	(99,5)	(19,0)	(340,0)	(1,1)	(60,93)	(-2,0)	(24,3)	(261,1)	(304,0)	(257,0)	(61,13)	(266,0)	(125,6)	
L1D -256>	(256,3)	(1,68)	(124,7)	(266,1)	(388,1)	(20,3)	(254,1)	(244,1)	(36,1)	(0,3)	(260,4)	(250,3)	(242,0)	(246,1)	(251,10)	(248,1)	
L1D -255>	(259,6)	(-20,1)	(19,2)	(84,126)	(0,95)	(250,60)	(-167,1)	(26,4)	(1,4)	(123,20)	(262,1)	(266,1)	(255,1)	(20,1)	(252,1)	(387,1)	
L1D -254>	(2,27)	(386,10)	(-12,9)	(257,4)	(122,60)	(264,10)	(0,11)	(-20,9)	(435,1)	(20,46)	(246,13)	(252,12)	(268,8)	(254,14)	(250,11)	(242,8)	
L1D -253>	(155,2)	(5,1)	(385,12)	(253,13)	(1,24)	(257,7)	(6,5)	(29,1)	(0,17)	(2,7)	(248,1)	(17,2)	(3,6)	(7,2)	(121,61)	(39,1)	
L1D -252>	(-112,2)	(240,7)	(2,8)	(120,56)	(-20,11)	(256,16)	(1,12)	(20,4)	(-26,4)	(268,6)	(274,1)	(19,8)	(-6,2)	(285,1)	(252,11)	(262,15)	
L1D -251>	(1,97)	(3,3)	(255,1)	(-20,1)	(297,1)	(-156,1)	(4,0)	(13,0)	(-31,0)	(119,7)	(-1,0)	(234,0)	(383,0)	(-257,0)	(391,0)	(-36,0)	
L1D -250>	(250,15)	(248,18)	(84,85)	(-18,5)	(268,10)	(1,13)	(4,6)	(-210,1)	(118,66)	(257,3)	(2,15)	(252,12)	(254,16)	(224,4)	(258,13)	(236,9)	
L1D -249>	(1,19)	(24,26)	(117,51)	(-36,10)	(0,10)	(4,2)	(381,5)	(249,4)	(19,1)	(-170,1)	(26,4)	(-166,1)	(298,1)	(-46,2)	(40,1)	(280,1)	
L1D -248>	(-37,8)	(2,10)	(1,13)	(242,16)	(248,10)	(249,12)	(234,7)	(272,4)	(222,1)	(0,15)	(19,8)	(4,2)	(116,59)	(20,56)	(3,3)	(256,9)	
L1D -247>	(26,44)	(247,22)	(33,2)	(115,69)	(6,2)	(48,2)	(245,6)	(1,31)	(226,10)	(0,13)	(2,4)	(3,14)	(368,1)	(256,1)	(-167,4)	(248,2)	
L1D -246>	(254,9)	(236,12)	(1,13)	(0,9)	(238,14)	(-88,1)	(20,12)	(19,39)	(-18,3)	(266,3)	(248,13)	(242,12)	(256,11)	(114,60)	(230,7)	(250,5)	
L1D -245>	(245,1)	(250,77)	(-6,10)	(-171,1)	(1,0)	(242,0)	(0,3)	(13,17)	(26,0)	(6,0)	(-165,0)	(41,0)	(24,2)	(2,0)	(247,0)	(113,7)	
L1D -244>	(112,63)	(244,7)	(0,8)	(242,13)	(222,3)	(-20,6)	(214,1)	(2,8)	(1,10)	(4,3)	(226,9)	(245,8)	(230,5)	(228,5)	(246,6)	(258,9)	
L1D -243>	(3,74)	(1,2)	(0,6)	(19,2)	(6,1)	(24,6)	(242,2)	(240,1)	(13,8)	(111,32)	(400,1)	(245,2)	(7,1)	(331,1)	(4,1)	(246,1)	
L1D -242>	(7,5)	(-26,5)	(1,31)	(2,10)	(242,7)	(0,17)	(228,5)	(5,3)	(20,1)	(240,16)	(110,85)	(250,8)	(55,2)	(244,13)	(6,3)	(14,5)	
L1D -241>	(3,3)	(24,26)	(241,24)	(26,42)	(1,21)	(6,1)	(240,3)	(-36,1)	(109,74)	(2,17)	(243,2)	(227,1)	(0,22)	(244,1)	(200,1)	(239,1)	
L1D -240>	(7,5)	(220,5)	(1,11)	(0,22)	(2,9)	(236,9)	(20,23)	(240,12)	(108,73)	(244,9)	(252,4)	(-58,1)	(250,13)	(216,3)	(230,9)	(218,4)	
L1D -239>	(239,58)	(1,11)	(248,2)	(-20,12)	(-1,5)	(0,22)	(186,22)	(244,11)	(241,8)	(-28,2)	(107,92)	(29,2)	(2,4)	(243,2)	(19,1)	(280,1)	
L1D -238>	(232,11)	(-20,6)	(-2,6)	(236,12)	(241,2)	(1,21)	(0,19)	(2,9)	(234,10)	(238,14)	(106,68)	(12,34)	(242,6)	(244,7)	(3,1)	(104,1)	
L1D -237>	(1,6)	(-9,6)	(29,2)	(232,2)	(0,31)	(2,1)	(-171,1)	(105,64)	(237,4)	(47,1)	(-187,1)	(-20,8)	(6,5)	(405,1)	(276,2)	(342,1)	
L1D -236>	(2,11)	(0,13)	(232,11)	(1,13)	(104,73)	(19,6)	(3,4)	(254,2)	(44,1)	(366,1)	(226,7)	(248,11)	(4,4)	(250,11)	(252,6)	(466,1)	
L1D -235>	(5,2)	(103,71)	(235,18)	(24,10)	(1,19)	(2,19)	(0,18)	(6,4)	(42,3)	(3,6)	(374,2)	(-175,1)	(206,1)	(410,1)	(236,2)	(218,1)	
L1D -234>	(102,75)	(0,14)	(226,6)	(1,12)	(2,2)	(240,11)	(-18,5)	(234,13)	(235,10)	(195,4)	(238,11)	(275,1)	(206,3)	(248,8)	(14,3)	(-92,1)	
L1D -233>	(101,91)	(1,14)	(240,5)	(-1,5)	(-20,10)	(24,19)	(3,8)	(233,32)	(26,6)	(0,16)	(227,9)	(234,3)	(229,5)	(29,5)	(-187,1)	(302,1)	
L1D -232>	(0,16)	(-20,10)	(1,17)	(2,15)	(20,11)	(100,95)	(202,7)	(19,17)	(232,16)	(233,17)	(212,4)	(-2,8)	(234,17)	(66,1)	(230,8)	(5,7)	
L1D -231>	(7,5)	(-191,2)	(1,25)	(4,2)	(29,1)	(231,3)	(-1,3)	(52,1)	(0,25)	(99,95)	(3,49)	(109,1)	(2,7)	(264,1)	(19,2)	(263,1)	
L1D -230>	(2,14)	(0,11)	(20,12)	(3,11)	(-18,1)	(98,84)	(223,5)	(4,11)	(232,11)	(1,12)	(228,7)	(234,7)	(224,12)	(238,7)	(230,6)	(226,8)	
L1D -229>	(0,86)	(374,8)	(2,3)	(24,2)	(231,1)	(-268,1)	(-9,27)	(6,1)	(3,1)	(26,3)	(1,2)	(252,1)	(5,1)	(-187,1)	(97,31)	(7,5)	
L1D -228>	(2,5)	(96,61)	(246,8)	(226,9)	(229,13)	(232,5)	(234,4)	(222,7)	(1,8)	(208,1)	(0,16)	(230,15)	(254,5)	(-20,19)	(240,13)	(278,1)	
L1D -227>	(227,30)	(0,17)	(1,26)	(-20,7)	(9,2)	(95,91)	(229,1)	(3,1)	(246,2)	(-184,1)	(329,1)	(188,18)	(-1,5)	(180,39)	(2,4)	(206,1)	
L1D -226>	(1,16)	(2,5)	(6,6)	(-26,5)	(0,18)	(246,9)	(220,11)	(94,75)	(226,14)	(234,1)	(222,9)	(198,4)	(208,5)	(228,14)	(218,4)	(3,4)	
L1D -225>	(225,63)	(93,96)	(24,18)	(37,10)	(1,18)	(26,3)	(38,3)	(-36,2)	(-20,28)	(-277,1)	(0,12)	(325,1)	(130,1)	(214,1)	(431,1)	(-1,2)	
L1D -224>	(232,9)	(3,13)	(0,19)	(225,14)	(19,21)	(224,24)	(92,83)	(1,15)	(2,12)	(-4,9)	(226,13)	(-12,1)	(210,10)	(20,10)	(206,6)	(4,8)	
L1D -223>	(1,15)	(0,20)	(2,24)	(225,5)	(-1,4)	(223,21)	(40,1)	(-191,4)	(252,2)	(91,91)	(7,9)	(3,2)	(128,1)	(-109,1)	(-20,16)	(56,1)	
L1D -222>	(1,15)	(90,101)	(226,1)	(0,13)	(228,12)	(14,2)	(222,14)	(248,4)	(-18,2)	(-20,15)	(-26,3)	(214,11)	(232,11)	(50,2)	(2,11)	(238,12)	
L1D -221>	(1,22)	(-196,2)	(0,25)	(236,2)	(89,117)	(6,6)	(221,30)	(-180,1)	(29,3)	(2,42)	(235,1)	(332,1)	(228,4)	(61,1)	(324,1)	(-1,1)	
L1D -220>	(216,1)	(1,29)	(9,2)	(0,21)	(2,45)	(-26,5)	(88,98)	(5,6)	(-18,3)	(210,10)	(240,4)	(228,6)	(-2,2)	(198,7)	(-20,21)	(164,2)	
L1D -219>	(-193,2)	(1,8)	(6,3)	(116,2)	(219,76)	(0,31)	(19,5)	(26,1)	(87,103)	(2,62)	(3,9)	(-20,24)	(434,1)	(-277,1)	(246,2)	(224,4)	
L1D -218>	(212,10)	(0,9)	(86,102)	(-26,2)	(226,11)	(218,9)	(46,2)	(1,3)	(130,2)	(2,26)	(236,2)	(-1,2)	(220,10)	(238,7)	(-2,1)	(116,2)	
L1D -217>	(214,2)	(217,2)	(85,75)	(2,9)	(-1,5)	(26,4)	(4,3)	(1,14)	(216,2)	(-2,1)	(29,1)	(0,6)	(246,2)	(224,4)	(57,1)	(-195,1)	
L1D -216>	(0,22)	(-244,2)	(2,18)	(214,11)	(1,20)	(223,3)	(84,114)	(218,18)	(200,7)	(14,5)	(216,5)	(224,13)	(20,72)	(210,6)	(222,2)	(208,1)	
L1D -215>	(1,7)	(3,2)	(216,1)	(91,0)	(0,24)	(-1,1)	(-262,0)	(83,33)	(98,71)	(119,0)	(-4,0)	(2,7)	(6,1)	(222,1)	(-288,0)	(72,0)	
L1D -214>	(0,66)	(2,1)	(1,4)	(4,4)	(82,15)	(220,1)	(13,1)	(15,1)	(214,1)	(173,1)	(232,2)	(224,0)	(212,1)	(124,0)	(198,0)	(218,1)	
L1D -213>	(81,8)	(215,0)	(-96,0)	(0,67)	(-1,0)	(108,0)	(204,0)	(5,0)	(220,0)	(158,0)	(29,0)	(213,0)	(211,0)	(1,2)	(2,0)	(1,0)	
L1D -212>	(80,114)	(222,6)	(-20,19)	(33,4)	(0,30)	(3,15)	(1,14)	(204,7)	(26,4)	(216,4)	(23,6)	(234,5)	(2,6)	(210,10)	(213,8)	(-294,1)	
L1D -211>	(5,9)	(1,16)	(211,29)	(79,124)	(6,17)	(212,10)	(33,2)	(0,41)	(179,2)	(-1,8)	(3,16)	(-2,5)	(213,1)	(-30,1)	(-20,14)	(200,2)	
L1D -210>	(1,19)	(78,110)	(198,7)	(8,3)	(0,28)	(216,14)	(210,10)	(2,5)	(228,2)	(208,16)	(196,5)	(160,2)	(14,2)	(464,1)	(206,11)	(4,4)	
L1D -209>	(3,8)	(9,2)	(1,7)	(29,11)	(194,3)	(208,4)	(26,87)	(192,2)	(187,2)	(-1,3)	(0,38)	(24,15)	(2,6)	(113,1)	(-156,1)	(6,4)	
L1D -208>	(19,8)	(0,45)	(1,8)	(-1,3)	(-26,2)	(180,3)	(-18,3)	(2,11)	(3,15)	(226,5)	(218,11)	(9,1)	(220,8)	(-6,1)	(194,8)	(204,6)	
L1D -207>	(207,18)	(210,6)	(0,36)	(2,1)	(1,11)	(6,4)	(-168,1)	(356,1)	(8,2)	(202,3)	(-279,1)	(38,1)	(173,1)	(148,1)	(209,8)	(75,8)	
L1D -206>	(1,19)	(202,6)	(222,4)	(4,9)	(207,6)	(234,3)	(0,29)	(224,1)	(-26,2)	(43,11)	(3,10)	(387,2)	(228,4)	(176,2)	(218,6)	(188,4)	
L1D -205>	(4,2)	(0,52)	(2,3)	(73,12)	(1,28)	(6,8)	(207,3)	(196,1)	(96,1)	(198,3)	(-6,1)	(3,8)	(296,1)	(-2,6)	(180,1)	(212,7)	
L1D -204>	(4,4)	(1,17)	(0,33)	(218,6)	(3,2)	(208,11)	(198,6)	(230,4)	(6,4)	(190,8)	(206,2)	(196,5)	(-34,2)	(214,11)	(216,11)	(211,1)	
L1D -203>	(1,15)	(-20,9)	(203,27)	(68,2)	(2,10)	(0,31)	(74,2)	(6,6)	(3,7)	(-1,3)	(69,1)	(166,1)	(10,1)	(75,1)	(374,1)	(8,3)	
L1D -202>	(210,10)	(40,2)	(2,4)	(0,25)	(1,48)	(226,1)	(330,6)	(240,2)	(206,10)	(310,1)	(194,16)	(24,6)	(-250,1)	(89,3)	(172,2)	(202,10)	
L1D -201>	(154,1)	(29,10)	(1,20)	(60,2)	(0,27)	(119,1)	(177,10)	(144,1)	(200,9)	(-232,1)	(210,1)	(2,5)	(25,2)	(36,1)	(20,1)	(192,1)	
L1D -200>	(210,8)	(201,5)	(0,20)	(1,6)	(178,43)	(212,11)	(220,4)	(182,2)	(202,14)	(24,1)	(198,21)	(132,2)	(192,2)	(226,3)	(234,3)	(18,1)	
L1D -199>	(18,2)	(6,2)	(1,16)	(3,3)	(0,29)	(23,27)	(4,2)	(106,1)	(89,1)	(-294,1)	(-1,4)	(452,1)	(198,23)	(488,1)	(87,1)	(12,1)	
L1D -198>	(-18,6)	(1,14)	(-26,4)	(186,6)	(0,24)	(8,1)	(2,7)	(177,6)	(210,10)	(5,2)	(192,11)	(60,2)	(220,7)	(3,5)	(188,13)	(194,2)	
L1D -197>	(325,2)	(0,13)	(1,115)	(-61,4)	(66,1)	(3,6)	(21,14)	(14,1)	(65,1)	(196,4)	(2,39)	(177,6)	(179,1)	(6,1)	(103,1)	(199,1)	
L1D -196>	(1,14)	(196,51)	(212,8)	(-18,8)	(197,5)	(-1,3)	(0,13)	(3,5)	(20,35)	(-14,4)	(188,3)	(214,9)	(204,9)	(178,1)	(7,3)	(206,6)	
L1D -195>	(1,29)	(204,2)	(197,4)	(195,13)	(31,1)	(180,2)	(0,26)	(194,18)	(8,1)	(19,47)	(106,1)	(361,1)	(323,6)	(3,4)	(177,9)	(26,1)	
L1D -194>	(-26,3)	(1,46)	(11,6)	(0,27)	(18,57)	(200,11)	(177,16)	(62,4)	(198,8)	(192,6)	(193,4)	(98,2)	(196,11)	(202,1)	(180,4)	(189,2)	
L1D -193>	(0,7)	(17,5)	(1,70)	(3,1)	(153,1)	(193,2)	(-2,4)	(27,1)	(-6,1)	(176,1)	(177,6)	(321,1)	(192,5)	(18,1)	(90,0)	(61,0)	
L1D -192>	(1,81)	(2,8)	(0,21)	(52,2)	(193,12)	(190,3)	(16,52)	(180,3)	(202,8)	(197,2)	(177,24)	(188,3)	(218,4)	(220,2)	(140,1)	(182,3)	
L1D -191>	(69,5)	(1,21)	(4,3)	(3,8)	(192,2)	(282,4)	(0,15)	(180,8)	(16,21)	(-1,2)	(177,35)	(15,58)	(191,2)	(119,2)	(-13,1)	(2,7)	
L1D -190>	(192,3)	(1,28)	(14,31)	(3,14)	(158,2)	(2,19)	(216,3)	(6,45)	(196,4)	(180,5)	(76,3)	(200,4)	(189,14)	(-2,1)	(210,2)	(4,6)	
L1D -189>	(5,7)	(190,24)	(1,90)	(4,4)	(6,24)	(13,24)	(33,8)	(177,12)	(0,20)	(195,2)	(108,1)	(225,2)	(-46,1)	(102,2)	(458,1)	(182,1)	
L1D -188>	(114,1)	(211,1)	(1,4)	(12,6)	(184,1)	(190,5)	(32,1)	(5,1)	(-2,1)	(188,16)	(11,6)	(70,1)	(62,1)	(192,1)	(44,111)	(119,1)	
L1D -187>	(1,27)	(-20,14)	(11,31)	(90,2)	(8,11)	(37,6)	(187,107)	(168,2)	(2,1)	(44,1)	(0,20)	(-320,1)	(10,15)	(-16,1)	(104,1)	(176,9)	
L1D -186>	(12,11)	(4,9)	(1,43)	(184,33)	(314,6)	(0,14)	(185,72)	(10,44)	(2,110)	(30,4)	(8,1)	(178,4)	(24,5)	(9,8)	(226,3)	(208,2)	
L1D -185>	(8,17)	(1,120)	(-2,2)	(184,7)	(0,10)	(2,3)	(60,1)	(185,2)	(11,1)	(171,1)	(9,22)	(177,20)	(183,2)	(127,1)	(135,1)	(147,1)	
L1D -184>	(8,76)	(3,13)	(7,3)	(0,43)	(-1,12)	(186,9)	(20,5)	(183,19)	(2,13)	(177,52)	(158,1)	(1,15)	(6,2)	(220,2)	(-10,3)	(190,4)	
L1D -183>	(1,14)	(2,29)	(51,3)	(311,6)	(0,29)	(182,7)	(3,2)	(190,8)	(8,29)	(-308,1)	(7,21)	(177,9)	(9,13)	(126,1)	(183,2)	(179,15)	
L1D -182>	(2,3)	(175,2)	(-26,3)	(1,14)	(50,6)	(30,4)	(42,3)	(0,10)	(178,11)	(6,87)	(177,4)	(190,5)	(208,3)	(4,6)	(138,2)	(214,1)	
L1D -181>	(185,4)	(6,8)	(1,13)	(5,14)	(186,6)	(-2,5)	(10,2)	(176,10)	(168,7)	(175,41)	(0,17)	(178,9)	(-1,5)	(177,1)	(2,4)	(-303,1)	
L1D -180>	(50,26)	(166,5)	(175,38)	(34,33)	(1,5)	(4,11)	(0,14)	(163,18)	(-304,1)	(178,4)	(130,2)	(176,36)	(184,3)	(6,4)	(174,23)	(2,5)	
L1D -179>	(3,33)	(168,24)	(166,11)	(34,13)	(1,23)	(179,4)	(0,13)	(171,6)	(175,53)	(182,17)	(174,68)	(176,37)	(163,15)	(165,1)	(173,32)	(177,24)	
L1D -178>	(2,11)	(175,83)	(174,47)	(0,14)	(124,1)	(1,25)	(202,3)	(46,3)	(-1,67)	(165,20)	(6,7)	(173,32)	(184,7)	(169,22)	(216,2)	(164,37)	
L1D -177>	(2,15)	(177,46)	(1,63)	(174,35)	(159,1)	(168,40)	(171,67)	(170,19)	(-1,78)	(-2,20)	(162,5)	(166,16)	(175,111)	(3,6)	(173,56)	(-15,5)	
L1D -176>	(171,20)	(175,96)	(174,109)	(-2,16)	(173,56)	(169,16)	(178,42)	(172,41)	(177,54)	(165,16)	(3,10)	(179,1)	(170,26)	(186,18)	(6,6)	(162,19)	
L1D -175>	(167,2)	(1,2)	(163,3)	(169,0)	(-1,65)	(178,13)	(3,1)	(170,18)	(177,7)	(176,5)	(161,2)	(9,1)	(2,3)	(183,4)	(6,5)	(-168,3)	
L1D -174>	(87,8)	(1,16)	(28,14)	(168,75)	(0,27)	(50,16)	(-2,10)	(175,10)	(2,6)	(178,34)	(-3,59)	(176,2)	(172,4)	(177,12)	(42,2)	(167,1)	
L1D -173>	(181,2)	(-1,51)	(28,111)	(175,14)	(1,12)	(86,5)	(-3,23)	(316,15)	(176,7)	(174,5)	(2,3)	(164,3)	(177,17)	(178,10)	(171,4)	(179,7)	
L1D -172>	(2,31)	(173,12)	(177,5)	(167,58)	(162,1)	(36,2)	(178,10)	(171,123)	(-4,8)	(166,2)	(175,39)	(1,10)	(174,26)	(176,13)	(180,5)	(300,2)	
L1D -171>	(171,102)	(177,41)	(90,42)	(167,1)	(4,33)	(174,1)	(-4,17)	(173,11)	(-3,7)	(172,5)	(182,2)	(3,3)	(0,1)	(170,1)	(176,3)	(118,4)	
L1D -170>	(33,69)	(170,4)	(-167,2)	(175,3)	(-1,2)	(-168,7)	(0,7)	(6,43)	(176,1)	(169,65)	(172,15)	(298,2)	(-6,1)	(180,3)	(179,4)	(182,3)	
L1D -169>	(-282,1)	(160,1)	(175,2)	(171,2)	(-7,1)	(163,1)	(40,1)	(54,1)	(1,7)	(2,117)	(0,1)	(57,1)	(27,1)	(187,2)	(178,2)	(76,1)	
L1D -168>	(-4,3)	(42,14)	(87,5)	(1,30)	(84,7)	(-3,83)	(338,3)	(190,1)	(170,1)	(296,1)	(181,1)	(-7,1)	(343,73)	(175,2)	(-1,1)	(0,1)	
L1D -167>	(-6,1)	(-4,3)	(188,1)	(6,1)	(0,2)	(166,65)	(1,2)	(86,43)	(167,4)	(169,4)	(-61,0)	(175,4)	(-9,1)	(176,1)	(-7,1)	(43,0)	
L1D -166>	(-10,21)	(-2,7)	(168,7)	(175,6)	(1,5)	(99,1)	(2,3)	(-1,13)	(167,6)	(-4,109)	(9,2)	(54,1)	(0,3)	(174,1)	(24,1)	(34,1)	
L1D -165>	(1,18)	(33,11)	(-10,8)	(166,13)	(293,16)	(167,44)	(0,20)	(175,23)	(-1,13)	(72,66)	(174,13)	(-11,20)	(160,1)	(189,10)	(190,6)	(187,15)	
L1D -164>	(-6,31)	(165,6)	(175,18)	(32,10)	(160,4)	(1,18)	(-12,49)	(-3,4)	(169,78)	(-11,4)	(2,9)	(166,10)	(-22,1)	(72,3)	(292,20)	(-2,7)	
L1D -163>	(159,15)	(291,92)	(165,49)	(27,3)	(1,9)	(164,12)	(2,10)	(175,7)	(-13,7)	(31,4)	(-93,1)	(171,1)	(6,5)	(-91,1)	(-1,8)	(67,1)	
L1D -162>	(164,10)	(163,4)	(-14,14)	(175,9)	(1,9)	(290,117)	(158,23)	(172,5)	(-13,1)	(190,3)	(-92,1)	(5,1)	(54,10)	(166,3)	(30,1)	(-44,1)	
L1D -161>	(0,1)	(289,77)	(162,4)	(27,1)	(163,21)	(-15,2)	(-14,12)	(172,8)	(169,1)	(191,1)	(157,7)	(29,1)	(1,1)	(175,5)	(174,1)	(-94,0)	
L1D -160>	(288,81)	(156,10)	(-8,1)	(-9,1)	(-108,1)	(3,5)	(174,2)	(175,1)	(120,1)	(-130,1)	(-56,1)	(1,1)	(-13,1)	(-6,1)	(211,1)	(157,1)	
L1D -159>	(156,1)	(287,77)	(161,3)	(-99,50)	(-98,3)	(155,10)	(-136,1)	(-2,1)	(109,0)	(-93,0)	(160,1)	(-125,0)	(181,0)	(-1,0)	(2,0)	(174,1)	
L1D -158>	(154,17)	(286,114)	(14,1)	(78,1)	(98,1)	(-1,5)	(44,1)	(366,1)	(175,1)	(1,2)	(-46,3)	(382,1)	(400,1)	(-120,1)	(258,1)	(70,2)	
L1D -157>	(-103,1)	(-124,1)	(285,85)	(188,1)	(3,3)	(153,10)	(-121,1)	(-98,0)	(161,1)	(197,0)	(-104,0)	(-94,0)	(0,0)	(-2,0)	(-116,0)	(-99,0)	
L1D -156>	(-44,1)	(284,91)	(64,7)	(-117,1)	(174,1)	(-46,1)	(152,16)	(-123,1)	(-107,1)	(108,1)	(-62,1)	(24,1)	(-128,1)	(0,1)	(476,1)	(104,1)	
L1D -155>	(1,1)	(-111,1)	(283,89)	(287,1)	(-112,1)	(-20,2)	(151,18)	(19,1)	(-108,1)	(-1,1)	(159,3)	(-102,1)	(-120,1)	(-21,0)	(-34,0)	(43,0)	
L1D -154>	(1,3)	(150,6)	(94,5)	(93,8)	(-127,0)	(152,1)	(17,0)	(282,45)	(-4,0)	(-1,1)	(153,69)	(148,1)	(92,2)	(149,1)	(342,0)	(88,1)	
L1D -153>	(153,1)	(93,37)	(145,2)	(281,119)	(-102,1)	(140,1)	(285,1)	(401,1)	(78,3)	(149,15)	(91,2)	(289,2)	(94,2)	(152,1)	(-1,1)	(150,4)	
L1D -152>	(280,64)	(156,3)	(283,1)	(76,1)	(284,1)	(92,7)	(148,12)	(140,1)	(143,0)	(79,0)	(-1,1)	(-123,0)	(89,1)	(-118,0)	(93,9)	(91,0)	
L1D -151>	(155,5)	(283,2)	(106,1)	(279,89)	(-135,1)	(139,1)	(140,1)	(147,21)	(-143,1)	(90,1)	(97,1)	(287,2)	(-121,1)	(89,2)	(150,2)	(145,1)	
L1D -150>	(232,1)	(282,2)	(90,2)	(278,94)	(142,1)	(154,11)	(12,2)	(146,21)	(286,1)	(89,8)	(43,1)	(151,1)	(-141,1)	(91,4)	(134,1)	(82,1)	
L1D -149>	(153,5)	(281,3)	(3,5)	(277,98)	(88,1)	(-113,1)	(102,1)	(13,1)	(-128,1)	(145,19)	(11,4)	(138,2)	(-147,1)	(169,1)	(-124,1)	(1,4)	
L1D -148>	(276,78)	(152,7)	(151,8)	(147,32)	(139,2)	(144,13)	(280,2)	(56,35)	(146,4)	(148,5)	(1,2)	(-5,1)	(92,1)	(-3,1)	(145,2)	(10,1)	
L1D -147>	(143,14)	(29,1)	(141,37)	(89,1)	(275,89)	(151,8)	(-33,10)	(1,1)	(424,1)	(133,2)	(145,1)	(140,1)	(88,1)	(290,1)	(148,1)	(279,4)	
L1D -146>	(274,121)	(154,6)	(9,60)	(145,20)	(282,1)	(150,7)	(1,5)	(104,115)	(-33,10)	(2,23)	(144,11)	(-1,8)	(142,29)	(103,9)	(278,4)	(100,3)	
L1D -145>	(7,10)	(277,4)	(141,23)	(154,10)	(1,2)	(281,4)	(-14,1)	(149,10)	(104,9)	(103,46)	(273,120)	(0,1)	(291,2)	(12,6)	(133,6)	(102,4)	
L1D -144>	(276,13)	(141,6)	(143,9)	(7,74)	(102,39)	(272,116)	(1,52)	(144,5)	(104,10)	(280,7)	(0,63)	(-26,16)	(-126,1)	(148,14)	(140,31)	(12,2)	
L1D -143>	(-120,1)	(275,6)	(139,16)	(-1,6)	(142,14)	(134,5)	(132,6)	(0,4)	(140,4)	(290,1)	(101,3)	(147,17)	(271,96)	(104,5)	(279,5)	(154,3)	
L1D -142>	(136,113)	(19,3)	(137,37)	(146,8)	(278,7)	(270,77)	(100,19)	(274,8)	(141,3)	(286,1)	(138,33)	(139,5)	(1,11)	(98,22)	(-6,1)	(96,2)	
L1D -141>	(139,94)	(-347,1)	(-1,6)	(145,28)	(1,5)	(269,118)	(136,45)	(99,11)	(93,5)	(100,26)	(98,9)	(137,41)	(273,10)	(292,9)	(285,3)	(3,42)	
L1D -140>	(97,6)	(144,22)	(0,9)	(272,11)	(2,8)	(-33,2)	(137,72)	(140,8)	(288,9)	(-10,46)	(139,4)	(285,5)	(1,11)	(136,14)	(135,4)	(402,1)	
L1D -139>	(140,9)	(1,60)	(2,3)	(275,6)	(143,8)	(136,89)	(3,5)	(137,27)	(138,33)	(132,5)	(271,2)	(-1,3)	(16,1)	(79,2)	(124,2)	(135,9)	
L1D -138>	(101,1)	(133,8)	(142,8)	(-3,29)	(137,37)	(138,36)	(141,40)	(136,55)	(4,15)	(139,56)	(-35,42)	(143,35)	(135,30)	(140,86)	(134,35)	(2,14)	
L1D -137>	(134,2)	(0,9)	(138,43)	(-3,2)	(-33,31)	(200,1)	(1,6)	(-1,5)	(9,6)	(-14,1)	(139,9)	(4,2)	(142,2)	(77,3)	(-7,122)	(3,3)	
L1D -136>	(0,56)	(136,24)	(139,7)	(2,15)	(134,9)	(132,5)	(140,10)	(142,9)	(1,51)	(96,6)	(-1,8)	(-2,19)	(131,4)	(138,6)	(44,89)	(411,1)	
L1D -135>	(0,11)	(276,1)	(1,8)	(2,89)	(136,6)	(271,4)	(6,11)	(421,1)	(137,3)	(286,1)	(138,20)	(287,1)	(-2,2)	(93,2)	(133,8)	(134,1)	
L1D -134>	(111,31)	(92,50)	(127,1)	(133,69)	(132,33)	(122,16)	(125,6)	(-1,39)	(119,1)	(130,16)	(121,8)	(288,1)	(124,4)	(131,23)	(128,16)	(129,9)	
L1D -133>	(133,49)	(96,1)	(132,71)	(6,6)	(130,15)	(131,52)	(-1,53)	(129,26)	(-3,3)	(91,100)	(128,27)	(166,25)	(90,13)	(51,40)	(122,12)	(1,67)	
L1D -132>	(145,1)	(4,118)	(272,1)	(28,0)	(-1,2)	(130,0)	(132,1)	(90,0)	(-155,1)	(273,0)	(-152,0)	(-140,0)	(-2,0)	(282,0)	(80,0)	(179,0)	
L1D -131>	(6,28)	(130,80)	(133,49)	(-1,53)	(1,71)	(129,76)	(89,102)	(91,20)	(132,50)	(146,40)	(126,1)	(75,5)	(406,4)	(279,9)	(2,7)	(290,7)	
L1D -130>	(133,67)	(88,22)	(129,18)	(124,15)	(-1,7)	(409,1)	(123,16)	(125,37)	(275,4)	(60,1)	(1,17)	(71,4)	(131,14)	(283,7)	(70,3)	(-2,7)	
L1D -129>	(1,18)	(-9,19)	(128,1)	(125,6)	(130,12)	(275,12)	(277,11)	(0,4)	(98,13)	(127,19)	(132,38)	(131,59)	(95,2)	(2,7)	(134,30)	(412,4)	
L1D -128>	(128,65)	(-151,3)	(-160,1)	(-152,2)	(-4,6)	(-150,2)	(200,1)	(-145,1)	(-156,2)	(-149,3)	(-153,3)	(-157,2)	(100,1)	(-158,1)	(-155,2)	(133,2)	
L1D -127>	(154,27)	(0,1)	(132,12)	(280,17)	(134,48)	(131,55)	(47,3)	(412,4)	(144,10)	(103,18)	(407,3)	(128,7)	(133,26)	(2,6)	(117,15)	(1,17)	
L1D -126>	(125,41)	(6,21)	(111,54)	(131,6)	(84,102)	(123,28)	(42,41)	(121,20)	(119,48)	(179,9)	(120,18)	(-1,28)	(398,1)	(134,9)	(122,9)	(124,37)	
L1D -125>	(119,22)	(123,85)	(121,32)	(-1,57)	(122,54)	(79,1)	(83,71)	(8,85)	(124,91)	(125,42)	(283,4)	(43,40)	(134,29)	(120,13)	(66,41)	(280,5)	
L1D -124>	(-1,118)	(1,15)	(134,69)	(277,5)	(82,116)	(432,1)	(122,36)	(269,6)	(8,27)	(21,60)	(120,10)	(274,8)	(125,63)	(404,1)	(2,2)	(256,1)	
L1D -123>	(132,8)	(-1,11)	(131,5)	(1,83)	(105,13)	(124,5)	(83,5)	(134,1)	(142,1)	(125,1)	(145,1)	(6,1)	(84,1)	(0,1)	(81,14)	(122,3)	
L1D -122>	(117,124)	(121,15)	(8,27)	(125,25)	(6,59)	(226,1)	(133,7)	(80,18)	(124,4)	(1,4)	(119,12)	(4,24)	(2,4)	(79,2)	(-1,10)	(120,22)	
L1D -121>	(79,73)	(122,16)	(2,5)	(123,41)	(1,12)	(-313,1)	(121,48)	(117,12)	(119,43)	(120,54)	(118,4)	(15,4)	(-1,36)	(81,3)	(124,34)	(82,3)	
L1D -120>	(118,10)	(121,10)	(133,30)	(6,18)	(103,107)	(114,5)	(119,14)	(3,2)	(134,26)	(1,19)	(-1,43)	(2,5)	(146,10)	(391,1)	(117,7)	(78,22)	
L1D -119>	(118,24)	(270,10)	(266,6)	(0,6)	(120,30)	(-1,106)	(1,14)	(125,57)	(134,46)	(117,117)	(116,53)	(42,1)	(78,12)	(79,5)	(126,6)	(77,35)	
L1D -118>	(116,92)	(117,126)	(115,48)	(119,10)	(1,9)	(-1,126)	(76,51)	(114,66)	(121,6)	(2,75)	(111,60)	(125,1)	(113,37)	(134,15)	(120,5)	(268,2)	
L1D -117>	(71,26)	(34,39)	(35,98)	(115,9)	(114,7)	(-1,9)	(117,14)	(82,16)	(116,25)	(260,1)	(-55,3)	(-5,26)	(118,9)	(121,19)	(75,33)	(120,6)	
L1D -116>	(121,6)	(111,40)	(117,75)	(74,63)	(118,110)	(36,7)	(76,15)	(109,33)	(81,22)	(-1,50)	(270,2)	(257,1)	(2,5)	(116,4)	(261,2)	(-7,20)	
L1D -115>	(1,8)	(117,7)	(-5,13)	(73,19)	(80,13)	(388,1)	(266,2)	(116,11)	(55,89)	(269,1)	(-1,2)	(118,18)	(69,4)	(257,1)	(75,1)	(98,5)	
L1D -114>	(77,2)	(44,20)	(111,72)	(112,1)	(2,2)	(76,16)	(400,1)	(0,1)	(138,1)	(-72,1)	(266,2)	(267,1)	(268,1)	(117,2)	(389,1)	(262,1)	
L1D -113>	(258,1)	(262,2)	(115,1)	(267,1)	(111,1)	(84,103)	(67,2)	(387,1)	(400,1)	(271,1)	(42,20)	(-13,1)	(118,7)	(241,2)	(-9,4)	(2,2)	
L1D -112>	(240,14)	(270,10)	(86,16)	(-4,34)	(264,12)	(260,11)	(117,10)	(2,6)	(266,14)	(150,4)	(1,22)	(37,6)	(113,12)	(34,5)	(258,11)	(5,1)	
L1D -111>	(259,15)	(112,6)	(93,76)	(45,40)	(5,5)	(98,20)	(100,10)	(-2,3)	(239,14)	(1,32)	(62,1)	(4,4)	(2,9)	(265,15)	(6,10)	(266,10)	
L1D -110>	(111,81)	(19,2)	(99,6)	(-1,12)	(98,5)	(1,29)	(262,4)	(263,3)	(265,5)	(26,2)	(261,6)	(2,8)	(78,4)	(478,1)	(268,3)	(0,91)	
L1D -109>	(5,8)	(2,18)	(99,54)	(237,8)	(98,3)	(-1,11)	(1,44)	(100,5)	(35,1)	(112,2)	(4,2)	(257,13)	(386,5)	(0,3)	(268,12)	(97,15)	
L1D -108>	(1,1)	(-54,39)	(105,3)	(-10,37)	(107,3)	(0,36)	(78,78)	(108,2)	(44,1)	(97,4)	(88,1)	(128,1)	(-81,1)	(90,1)	(385,0)	(-6,5)	
L1D -107>	(108,11)	(254,1)	(6,1)	(-23,1)	(-61,1)	(-19,1)	(29,1)	(104,1)	(65,87)	(183,1)	(112,1)	(-106,1)	(253,3)	(1,2)	(-96,0)	(265,0)	
L1D -106>	(1,74)	(0,3)	(117,2)	(258,1)	(96,1)	(261,1)	(252,1)	(-1,1)	(106,1)	(126,1)	(156,1)	(234,1)	(255,0)	(107,0)	(-16,0)	(254,0)	
L1D -105>	(7,77)	(0,21)	(105,2)	(106,2)	(252,1)	(-4,26)	(86,7)	(257,2)	(127,1)	(255,1)	(261,1)	(-285,1)	(-328,74)	(138,1)	(-334,1)	(260,1)	
L1D -104>	(102,10)	(136,86)	(-139,3)	(251,1)	(-144,2)	(103,22)	(-1,10)	(145,15)	(143,14)	(-143,2)	(144,18)	(-137,2)	(-136,2)	(101,5)	(-145,2)	(-150,1)	
L1D -103>	(103,2)	(60,109)	(1,1)	(134,1)	(144,3)	(53,1)	(141,1)	(388,1)	(63,11)	(-66,1)	(7,1)	(143,1)	(13,1)	(-1,7)	(254,0)	(276,0)	
L1D -102>	(143,72)	(140,21)	(102,39)	(1,23)	(133,12)	(5,1)	(145,104)	(16,5)	(19,2)	(99,24)	(230,19)	(138,18)	(0,17)	(97,9)	(103,63)	(101,27)	
L1D -101>	(146,1)	(140,29)	(1,22)	(98,21)	(136,8)	(144,14)	(145,125)	(103,7)	(4,3)	(250,15)	(-1,7)	(257,8)	(142,35)	(102,81)	(2,3)	(0,10)	
L1D -100>	(142,55)	(141,106)	(145,124)	(136,2)	(102,50)	(-1,30)	(-2,8)	(62,6)	(104,31)	(1,101)	(96,14)	(174,2)	(143,30)	(2,11)	(101,27)	(98,52)	
L1D -99>	(0,59)	(78,12)	(62,104)	(24,26)	(99,26)	(89,6)	(4,1)	(98,4)	(61,3)	(253,1)	(141,2)	(110,1)	(60,14)	(101,5)	(-79,1)	(251,1)	
L1D -98>	(98,54)	(-1,15)	(0,60)	(60,65)	(29,5)	(78,57)	(135,0)	(251,0)	(28,8)	(97,7)	(140,2)	(141,2)	(142,5)	(99,5)	(145,0)	(125,1)	
L1D -97>	(95,4)	(-26,3)	(98,105)	(99,9)	(29,42)	(249,5)	(102,16)	(1,15)	(-1,116)	(141,19)	(97,23)	(-292,1)	(142,10)	(138,7)	(225,4)	(140,24)	
L1D -96>	(-29,90)	(60,1)	(141,0)	(-9,2)	(96,0)	(127,1)	(-41,0)	(125,0)	(-1,0)	(101,0)	(166,0)	(102,0)	(173,0)	(248,0)	(98,0)	(253,0)	
L1D -95>	(-29,30)	(94,4)	(150,108)	(91,4)	(146,8)	(386,1)	(99,1)	(96,5)	(1,15)	(144,1)	(2,10)	(223,4)	(141,7)	(139,5)	(125,10)	(97,10)	
L1D -94>	(153,12)	(52,29)	(137,3)	(154,22)	(51,54)	(1,71)	(93,14)	(135,8)	(152,23)	(88,14)	(92,18)	(91,1)	(-1,13)	(151,12)	(50,4)	(150,9)	
L1D -93>	(0,16)	(51,77)	(-8,61)	(92,5)	(52,2)	(124,8)	(-29,37)	(144,7)	(146,11)	(-1,5)	(91,7)	(1,94)	(2,6)	(384,1)	(93,6)	(90,13)	
L1D -92>	(51,59)	(50,67)	(137,1)	(93,35)	(107,15)	(-1,52)	(150,20)	(52,13)	(91,60)	(-9,54)	(131,46)	(130,19)	(132,47)	(146,35)	(90,93)	(151,24)	
L1D -91>	(248,1)	(91,12)	(49,12)	(84,4)	(96,115)	(146,13)	(150,18)	(89,7)	(51,41)	(90,16)	(-1,15)	(1,6)	(48,11)	(79,4)	(175,5)	(132,13)	
L1D -90>	(88,3)	(-1,12)	(133,10)	(1,12)	(153,6)	(48,5)	(134,4)	(32,1)	(127,2)	(132,2)	(86,3)	(146,5)	(47,5)	(93,10)	(0,3)	(91,67)	
L1D -89>	(98,19)	(85,25)	(0,16)	(148,12)	(130,28)	(10,16)	(84,102)	(91,18)	(132,32)	(133,61)	(87,20)	(146,38)	(121,1)	(153,12)	(47,5)	(90,32)	
L1D -88>	(1,86)	(6,28)	(47,6)	(61,41)	(0,71)	(84,7)	(42,1)	(90,5)	(83,2)	(89,6)	(52,9)	(51,7)	(26,10)	(129,7)	(133,17)	(115,4)	
L1D -87>	(98,66)	(85,2)	(89,6)	(15,0)	(130,4)	(0,40)	(52,1)	(51,5)	(133,4)	(94,1)	(148,3)	(154,3)	(1,3)	(90,4)	(151,1)	(146,8)	
L1D -86>	(90,18)	(45,28)	(17,83)	(-4,32)	(87,73)	(0,15)	(94,96)	(89,46)	(47,5)	(1,76)	(42,1)	(-1,50)	(130,63)	(51,16)	(133,41)	(134,49)	
L1D -85>	(81,10)	(129,10)	(1,19)	(94,20)	(87,7)	(73,14)	(92,6)	(-8,106)	(-1,6)	(107,12)	(43,1)	(90,21)	(150,4)	(44,15)	(88,5)	(128,17)	
L1D -84>	(42,72)	(43,6)	(83,28)	(-1,27)	(94,9)	(125,16)	(-4,1)	(15,4)	(123,18)	(85,6)	(129,10)	(158,44)	(1,23)	(146,18)	(154,14)	(126,15)	
L1D -83>	(42,11)	(138,37)	(5,5)	(-1,13)	(1,22)	(31,39)	(85,7)	(-9,66)	(152,6)	(41,1)	(108,5)	(43,21)	(84,10)	(79,8)	(82,77)	(-5,15)	
L1D -82>	(126,3)	(121,2)	(8,4)	(117,36)	(134,5)	(1,8)	(5,4)	(125,4)	(6,86)	(83,4)	(-1,13)	(79,2)	(42,7)	(4,31)	(2,12)	(40,1)	
L1D -81>	(125,39)	(81,16)	(27,1)	(83,13)	(124,32)	(78,75)	(-7,74)	(91,10)	(116,60)	(82,26)	(8,12)	(79,34)	(152,3)	(75,5)	(1,15)	(-1,39)	
L1D -80>	(125,19)	(52,42)	(82,11)	(115,109)	(79,3)	(76,4)	(146,8)	(31,21)	(1,5)	(2,8)	(77,18)	(153,9)	(12,1)	(69,4)	(83,15)	(120,9)	
L1D -79>	(76,54)	(-14,4)	(1,49)	(75,22)	(118,21)	(78,27)	(61,57)	(124,27)	(146,1)	(-1,38)	(77,27)	(94,9)	(37,7)	(83,14)	(81,44)	(111,115)	
L1D -78>	(87,6)	(60,70)	(0,44)	(102,1)	(122,2)	(-1,7)	(3,2)	(113,7)	(79,1)	(98,9)	(75,3)	(76,3)	(89,4)	(99,6)	(120,1)	(121,1)	
L1D -77>	(117,22)	(17,9)	(89,1)	(1,98)	(78,35)	(94,13)	(120,22)	(36,6)	(121,23)	(92,6)	(73,21)	(93,4)	(-1,22)	(4,5)	(79,62)	(82,5)	
L1D -76>	(154,7)	(-1,61)	(76,5)	(77,8)	(134,73)	(115,15)	(117,37)	(73,78)	(75,125)	(41,9)	(68,1)	(74,28)	(82,10)	(89,22)	(120,9)	(2,12)	
L1D -75>	(2,8)	(15,24)	(-1,12)	(77,57)	(61,21)	(76,12)	(94,16)	(116,1)	(118,42)	(33,8)	(134,14)	(0,113)	(1,35)	(18,13)	(154,53)	(35,40)	
L1D -74>	(17,15)	(111,42)	(-1,19)	(94,2)	(75,84)	(73,7)	(69,30)	(45,2)	(61,7)	(55,1)	(1,5)	(72,2)	(43,3)	(2,3)	(77,1)	(32,60)	
L1D -73>	(128,59)	(94,8)	(116,77)	(-1,18)	(1,10)	(134,14)	(73,4)	(74,17)	(21,58)	(31,7)	(118,66)	(13,1)	(91,2)	(12,3)	(70,3)	(71,6)	
L1D -72>	(1,112)	(-4,9)	(30,14)	(94,15)	(8,3)	(89,8)	(93,4)	(68,1)	(90,3)	(12,4)	(74,12)	(71,4)	(6,3)	(131,9)	(-1,20)	(73,18)	
L1D -71>	(1,112)	(153,7)	(118,61)	(76,18)	(94,18)	(73,71)	(11,27)	(31,25)	(129,44)	(61,51)	(72,9)	(75,19)	(-1,47)	(30,6)	(29,21)	(86,1)	
L1D -70>	(-84,1)	(21,42)	(-85,100)	(25,29)	(69,77)	(1,6)	(28,6)	(70,6)	(362,3)	(94,15)	(132,16)	(8,6)	(133,7)	(71,14)	(38,12)	(0,3)	
L1D -69>	(131,6)	(130,7)	(1,28)	(132,3)	(22,73)	(-71,1)	(27,17)	(69,2)	(126,12)	(43,19)	(68,1)	(20,1)	(-85,10)	(61,13)	(94,9)	(-29,1)	
L1D -68>	(1,31)	(26,63)	(22,15)	(130,2)	(43,9)	(42,4)	(69,85)	(94,8)	(61,33)	(-1,9)	(0,3)	(34,72)	(28,11)	(8,8)	(5,8)	(2,86)	
L1D -67>	(94,9)	(25,23)	(15,104)	(1,44)	(121,1)	(122,107)	(67,16)	(42,18)	(43,12)	(128,13)	(61,14)	(3,7)	(6,7)	(2,2)	(66,32)	(5,4)	
L1D -66>	(6,20)	(63,4)	(24,63)	(0,2)	(-45,123)	(62,21)	(21,74)	(94,11)	(67,12)	(-107,1)	(9,1)	(43,72)	(25,1)	(64,27)	(1,16)	(65,9)	
L1D -65>	(107,37)	(64,65)	(1,21)	(31,26)	(-69,4)	(128,1)	(43,87)	(127,9)	(42,4)	(66,19)	(126,6)	(13,76)	(59,2)	(2,6)	(6,31)	(23,50)	
L1D -64>	(22,7)	(60,1)	(1,104)	(-30,2)	(43,10)	(15,5)	(2,1)	(-70,1)	(49,1)	(-16,2)	(61,2)	(58,2)	(65,3)	(45,4)	(72,2)	(66,4)	
L1D -63>	(42,9)	(3,15)	(1,57)	(-1,28)	(65,5)	(-68,5)	(43,70)	(61,12)	(-347,1)	(63,7)	(21,53)	(62,12)	(-87,11)	(20,54)	(34,3)	(68,6)	
L1D -62>	(0,33)	(1,15)	(43,96)	(20,105)	(59,49)	(58,25)	(57,31)	(61,27)	(42,23)	(19,5)	(65,9)	(-23,14)	(62,42)	(-2,48)	(4,1)	(22,7)	
L1D -61>	(1,65)	(-22,18)	(59,16)	(43,9)	(57,6)	(50,2)	(60,11)	(19,28)	(40,1)	(-3,11)	(-93,2)	(58,9)	(18,2)	(56,7)	(42,8)	(53,8)	
L1D -60>	(60,65)	(42,12)	(59,89)	(61,75)	(-1,71)	(62,105)	(58,73)	(64,37)	(18,19)	(57,34)	(-2,47)	(8,15)	(99,22)	(63,48)	(0,12)	(55,1)	
L1D -59>	(1,14)	(17,90)	(60,24)	(61,81)	(58,58)	(-1,46)	(57,28)	(56,29)	(51,22)	(44,19)	(64,17)	(-4,36)	(42,19)	(59,27)	(43,62)	(0,1)	
L1D -58>	(16,82)	(60,7)	(54,8)	(57,8)	(-1,6)	(38,1)	(53,5)	(56,9)	(44,26)	(61,7)	(-33,2)	(55,10)	(59,28)	(43,8)	(15,11)	(42,6)	
L1D -57>	(57,95)	(27,11)	(42,51)	(-1,17)	(43,65)	(59,20)	(15,102)	(56,30)	(58,27)	(14,12)	(61,64)	(55,30)	(1,11)	(16,26)	(71,1)	(54,28)	
L1D -56>	(14,68)	(57,8)	(55,53)	(59,27)	(54,27)	(60,11)	(44,24)	(53,16)	(11,1)	(45,110)	(43,97)	(1,55)	(61,38)	(42,23)	(56,35)	(-2,10)	
L1D -55>	(45,3)	(51,4)	(57,12)	(13,115)	(42,29)	(15,12)	(30,1)	(43,108)	(44,11)	(14,28)	(53,52)	(54,12)	(60,15)	(12,3)	(11,18)	(58,13)	
L1D -54>	(42,29)	(-27,85)	(14,1)	(-84,4)	(56,13)	(43,41)	(1,113)	(162,6)	(55,14)	(59,23)	(60,34)	(12,56)	(4,33)	(52,7)	(11,38)	(10,47)	
L1D -53>	(42,23)	(1,21)	(-43,26)	(-36,8)	(11,105)	(53,50)	(60,23)	(55,8)	(51,37)	(44,66)	(4,6)	(52,7)	(10,47)	(43,52)	(28,1)	(54,52)	
L1D -52>	(7,11)	(54,2)	(-1,61)	(362,3)	(10,123)	(50,23)	(51,48)	(94,7)	(91,8)	(39,1)	(43,29)	(363,2)	(9,14)	(92,19)	(60,6)	(42,8)	
L1D -51>	(1,33)	(-1,37)	(44,1)	(52,43)	(9,52)	(39,87)	(50,49)	(42,26)	(94,20)	(92,6)	(49,47)	(56,41)	(51,67)	(59,13)	(-4,54)	(43,84)	
L1D -50>	(51,115)	(50,83)	(48,41)	(1,10)	(-1,17)	(90,9)	(60,17)	(8,47)	(59,15)	(2,24)	(4,23)	(7,1)	(42,47)	(94,11)	(38,65)	(43,55)	
L1D -49>	(4,1)	(6,15)	(5,29)	(2,38)	(50,19)	(93,9)	(-73,6)	(1,28)	(42,9)	(49,89)	(9,7)	(51,14)	(44,22)	(43,45)	(46,9)	(7,33)	
L1D -48>	(-12,6)	(1,5)	(8,41)	(9,9)	(84,3)	(2,45)	(-1,30)	(48,107)	(51,33)	(43,20)	(6,49)	(56,1)	(52,22)	(46,17)	(50,25)	(3,43)	
L1D -47>	(44,15)	(43,41)	(51,20)	(2,48)	(4,5)	(49,4)	(47,98)	(42,1)	(-1,12)	(3,14)	(-108,9)	(7,4)	(5,15)	(50,16)	(41,13)	(46,6)	
L1D -46>	(93,19)	(50,7)	(1,17)	(46,52)	(4,12)	(48,10)	(44,50)	(56,8)	(-4,20)	(45,64)	(41,36)	(40,66)	(2,33)	(-28,1)	(-1,28)	(42,8)	
L1D -45>	(5,1)	(50,41)	(45,69)	(3,42)	(40,38)	(2,27)	(13,7)	(48,22)	(-3,6)	(-1,23)	(43,37)	(47,9)	(42,49)	(93,18)	(44,18)	(41,50)	
L1D -44>	(44,10)	(1,87)	(45,1)	(39,1)	(-41,1)	(40,2)	(42,1)	(37,1)	(-1,2)	(-4,1)	(25,1)	(35,1)	(41,4)	(-39,1)	(-40,1)	(84,1)	
L1D -43>	(83,7)	(-12,1)	(2,10)	(1,18)	(-7,5)	(43,10)	(-1,9)	(45,8)	(41,14)	(42,81)	(3,24)	(38,7)	(39,6)	(6,9)	(40,17)	(-2,6)	
L1D -42>	(39,1)	(1,23)	(44,69)	(42,6)	(3,10)	(2,41)	(43,22)	(36,8)	(29,8)	(-2,12)	(48,10)	(18,5)	(54,5)	(8,5)	(41,54)	(-1,73)	
L1D -41>	(2,105)	(-1,62)	(43,103)	(42,112)	(49,42)	(38,18)	(1,63)	(47,65)	(45,1)	(26,36)	(7,21)	(3,25)	(46,33)	(41,42)	(40,74)	(44,70)	
L1D -40>	(39,31)	(44,8)	(1,8)	(-1,12)	(43,9)	(2,11)	(6,1)	(48,1)	(42,114)	(-16,1)	(45,4)	(41,11)	(-3,2)	(46,2)	(3,2)	(40,1)	
L1D -39>	(1,49)	(2,10)	(0,1)	(-1,30)	(81,1)	(42,84)	(41,10)	(-44,1)	(43,2)	(38,62)	(44,19)	(39,3)	(18,1)	(-83,0)	(35,2)	(-5,3)	
L1D -38>	(-4,12)	(36,2)	(25,1)	(40,1)	(-2,1)	(17,57)	(-6,122)	(2,1)	(41,1)	(-106,0)	(38,9)	(39,1)	(-3,4)	(37,0)	(-1,3)	(42,15)	
L1D -37>	(-16,2)	(3,1)	(4,4)	(41,5)	(43,0)	(11,0)	(6,0)	(42,4)	(44,0)	(37,1)	(40,4)	(-3,0)	(36,0)	(-1,0)	(2,5)	(39,74)	
L1D -36>	(3,7)	(41,25)	(52,15)	(1,56)	(94,7)	(37,1)	(2,8)	(4,27)	(42,22)	(36,94)	(7,4)	(35,14)	(-6,7)	(38,35)	(39,13)	(-1,19)	
L1D -35>	(3,78)	(39,16)	(-4,8)	(5,1)	(41,20)	(-81,18)	(-80,34)	(35,102)	(38,15)	(1,18)	(6,16)	(42,17)	(-82,35)	(40,17)	(34,8)	(-1,14)	
L1D -34>	(3,2)	(-7,2)	(34,12)	(2,117)	(63,1)	(36,2)	(5,1)	(-1,2)	(41,2)	(6,2)	(4,22)	(-14,1)	(42,7)	(22,1)	(70,14)	(53,1)	
L1D -33>	(-1,20)	(42,31)	(35,10)	(-9,11)	(19,24)	(-28,2)	(41,29)	(32,12)	(34,4)	(-6,66)	(33,109)	(-10,15)	(54,5)	(0,10)	(94,10)	(36,8)	
L1D -32>	(32,79)	(71,64)	(33,6)	(-14,7)	(-1,46)	(41,20)	(31,51)	(-8,8)	(4,18)	(-10,16)	(2,41)	(36,7)	(34,7)	(1,83)	(3,1)	(42,15)	
L1D -31>	(8,40)	(-14,26)	(5,46)	(-9,33)	(-40,11)	(2,19)	(-11,18)	(48,15)	(32,1)	(-1,42)	(-2,20)	(-10,9)	(-6,3)	(31,96)	(53,7)	(4,29)	
L1D -30>	(42,7)	(268,1)	(-6,2)	(30,86)	(-1,119)	(-10,29)	(57,5)	(31,25)	(3,71)	(5,12)	(-12,53)	(41,41)	(4,6)	(2,26)	(6,29)	(-11,32)	
L1D -29>	(1,12)	(2,18)	(32,6)	(41,12)	(-32,64)	(31,6)	(-1,14)	(5,101)	(29,47)	(-59,8)	(28,15)	(6,25)	(-11,7)	(26,4)	(14,1)	(42,7)	
L1D -28>	(6,13)	(10,22)	(40,1)	(41,9)	(2,59)	(50,115)	(32,60)	(29,14)	(1,31)	(-14,20)	(28,60)	(-22,28)	(3,20)	(25,7)	(4,16)	(5,9)	
L1D -27>	(49,71)	(1,1)	(4,2)	(-4,0)	(41,0)	(27,0)	(16,3)	(-13,0)	(17,3)	(8,2)	(28,0)	(40,0)	(-7,0)	(-15,0)	(43,0)	(29,0)	
L1D -26>	(33,64)	(2,57)	(3,1)	(26,82)	(67,15)	(6,49)	(4,20)	(22,17)	(25,32)	(35,19)	(5,28)	(1,32)	(-34,54)	(8,66)	(27,38)	(19,26)	
L1D -25>	(-1,35)	(1,102)	(42,8)	(2,36)	(25,127)	(6,25)	(41,96)	(24,46)	(-15,19)	(0,3)	(43,29)	(-11,50)	(4,33)	(26,16)	(34,58)	(5,22)	
L1D -24>	(-34,1)	(22,3)	(0,9)	(1,36)	(23,24)	(2,8)	(6,3)	(43,1)	(-17,1)	(-1,11)	(3,10)	(41,4)	(-61,1)	(-3,7)	(5,72)	(24,28)	
L1D -23>	(6,4)	(11,7)	(2,2)	(5,86)	(0,3)	(-1,1)	(22,2)	(1,4)	(17,1)	(4,1)	(-141,1)	(3,1)	(-42,1)	(20,2)	(7,1)	(23,6)	
L1D -22>	(21,45)	(-41,4)	(4,35)	(2,22)	(3,29)	(6,61)	(18,43)	(52,1)	(42,5)	(16,33)	(23,36)	(-1,16)	(7,20)	(22,67)	(19,38)	(20,44)	
L1D -21>	(-16,0)	(-6,65)	(15,2)	(-78,0)	(14,0)	(16,1)	(11,0)	(-42,0)	(-1,0)	(5,0)	(6,1)	(13,0)	(4,0)	(24,4)	(18,0)	(1,0)	
L1D -20>	(0,107)	(239,1)	(21,26)	(-9,1)	(15,9)	(13,49)	(6,7)	(3,1)	(24,6)	(14,37)	(5,15)	(16,9)	(1,7)	(20,18)	(19,1)	(18,4)	
L1D -19>	(4,48)	(-8,118)	(17,2)	(20,117)	(5,3)	(7,3)	(15,13)	(6,4)	(-7,6)	(13,10)	(14,4)	(1,5)	(11,1)	(16,6)	(31,2)	(19,2)	
L1D -18>	(1,45)	(-8,94)	(11,19)	(3,50)	(4,91)	(19,107)	(24,1)	(15,14)	(6,21)	(-42,12)	(12,10)	(2,14)	(13,41)	(14,21)	(-3,18)	(17,7)	
L1D -17>	(-42,8)	(4,44)	(18,124)	(0,2)	(15,7)	(1,28)	(11,11)	(2,25)	(6,5)	(26,1)	(17,1)	(28,5)	(16,5)	(3,9)	(14,8)	(13,8)	
L1D -16>	(15,1)	(18,1)	(-43,8)	(17,97)	(16,1)	(4,18)	(11,3)	(49,1)	(-11,1)	(14,27)	(12,4)	(19,3)	(3,8)	(1,21)	(26,3)	(30,1)	
L1D -15>	(9,23)	(28,13)	(24,13)	(1,23)	(5,43)	(6,25)	(10,18)	(4,106)	(26,11)	(12,38)	(14,15)	(-42,11)	(3,9)	(11,46)	(29,1)	(13,23)	
L1D -14>	(5,11)	(8,5)	(18,32)	(0,1)	(19,124)	(23,2)	(3,3)	(-14,3)	(21,1)	(4,22)	(2,5)	(20,2)	(16,23)	(1,6)	(29,1)	(6,11)	
L1D -13>	(1,13)	(2,8)	(21,68)	(-33,15)	(-61,3)	(8,2)	(14,68)	(11,5)	(3,15)	(5,7)	(4,34)	(10,10)	(-42,7)	(12,3)	(22,5)	(6,14)	
L1D -12>	(35,2)	(3,1)	(-41,1)	(6,3)	(-39,9)	(-1,1)	(-21,97)	(7,0)	(4,5)	(10,0)	(-38,13)	(-44,10)	(5,3)	(8,3)	(2,2)	(-27,3)	
L1D -11>	(20,6)	(15,1)	(1,14)	(17,1)	(-60,1)	(5,12)	(3,11)	(10,2)	(-42,6)	(-7,3)	(2,4)	(4,82)	(18,6)	(8,2)	(-12,1)	(6,9)	
L1D -10>	(6,20)	(43,9)	(8,14)	(4,108)	(3,48)	(117,1)	(0,22)	(18,20)	(5,36)	(19,5)	(-40,7)	(9,17)	(-42,15)	(1,74)	(7,12)	(2,29)	
L1D -9>	(6,30)	(1,29)	(35,1)	(-42,22)	(13,12)	(-5,18)	(12,122)	(-14,26)	(9,2)	(2,50)	(4,62)	(5,20)	(-8,6)	(3,14)	(7,18)	(15,49)	
L1D -8>	(8,3)	(-29,12)	(3,83)	(-15,1)	(-26,3)	(4,26)	(-42,2)	(11,8)	(115,1)	(-4,4)	(2,18)	(1,2)	(12,1)	(7,15)	(-11,3)	(6,1)	
L1D -7>	(4,20)	(9,18)	(1,95)	(-5,1)	(0,19)	(-7,10)	(12,16)	(7,56)	(5,26)	(-13,77)	(8,9)	(14,17)	(6,27)	(13,18)	(10,16)	(3,6)	
L1D -6>	(17,82)	(-9,2)	(4,2)	(3,1)	(35,3)	(-3,1)	(29,1)	(1,15)	(5,6)	(-11,0)	(2,21)	(14,0)	(-14,6)	(7,19)	(-16,0)	(-2,1)	
L1D -5>	(-14,4)	(7,6)	(13,0)	(-15,8)	(2,9)	(-18,1)	(4,8)	(1,9)	(6,68)	(-10,6)	(0,4)	(10,4)	(-3,24)	(5,1)	(8,8)	(-103,4)	
L1D -4>	(-5,19)	(7,9)	(-15,44)	(4,31)	(6,3)	(-1,12)	(-4,39)	(-18,11)	(-3,22)	(-16,9)	(-11,45)	(-7,13)	(1,26)	(5,66)	(3,28)	(-8,13)	
L1D -3>	(0,29)	(-4,16)	(1,33)	(-14,34)	(-2,9)	(3,30)	(-7,30)	(-1,116)	(2,55)	(-11,30)	(-3,38)	(-12,2)	(4,32)	(6,20)	(-5,5)	(-15,26)	
L1D -2>	(-2,27)	(-13,23)	(3,120)	(-3,46)	(-15,55)	(-11,32)	(-4,12)	(5,106)	(-14,1)	(-1,51)	(4,74)	(-19,16)	(-6,15)	(-5,61)	(2,31)	(1,107)	
L1D -1>	(2,11)	(9,1)	(5,6)	(-6,3)	(6,8)	(3,77)	(42,6)	(0,9)	(-7,6)	(4,6)	(-1,25)	(-11,6)	(1,2)	(-18,2)	(-3,16)	(45,2)	
L1D 0>	(0,110)	(20,1)	(1,11)	(-10,1)	(33,1)	(6,0)	(21,0)	(13,2)	(3,1)	(-3,1)	(5,0)	(306,1)	(411,0)	(-52,0)	(489,0)	(-9,0)	
L1D 1>	(1,127)	(0,18)	(7,2)	(-6,10)	(8,2)	(4,2)	(-2,1)	(-1,4)	(-4,4)	(-20,2)	(6,1)	(2,21)	(-17,3)	(-5,9)	(3,7)	(-3,2)	
L1D 2>	(-4,2)	(-1,16)	(-5,6)	(3,15)	(6,2)	(1,29)	(-3,5)	(-37,2)	(2,112)	(-6,2)	(-34,7)	(-16,11)	(4,42)	(-509,1)	(-13,1)	(5,4)	
L1D 3>	(-1,75)	(13,14)	(-40,2)	(1,38)	(-11,1)	(2,71)	(-42,4)	(-3,13)	(5,10)	(8,7)	(4,25)	(-19,5)	(-7,1)	(0,15)	(3,20)	(-2,1)	
L1D 4>	(8,5)	(13,1)	(-3,2)	(12,2)	(4,17)	(-1,23)	(47,1)	(3,19)	(1,14)	(-34,2)	(-4,8)	(6,2)	(-2,8)	(2,71)	(10,4)	(128,11)	
L1D 5>	(-1,32)	(-5,13)	(10,17)	(8,5)	(-4,11)	(1,70)	(-8,37)	(17,7)	(3,5)	(-2,73)	(14,1)	(24,10)	(2,27)	(13,6)	(-3,42)	(11,12)	
L1D 6>	(6,3)	(2,103)	(-20,10)	(-6,51)	(8,12)	(-29,5)	(20,8)	(1,126)	(-2,24)	(-3,29)	(-1,88)	(9,1)	(4,8)	(-4,8)	(-174,5)	(-19,8)	
L1D 7>	(-1,10)	(-5,9)	(8,98)	(-6,70)	(-41,3)	(-3,5)	(9,3)	(-19,1)	(-20,16)	(0,17)	(2,4)	(-2,2)	(-4,18)	(1,6)	(-7,20)	(3,9)	
L1D 8>	(-42,10)	(-4,14)	(-21,22)	(-3,7)	(-14,98)	(-1,25)	(3,34)	(-2,24)	(-35,3)	(4,12)	(1,15)	(-80,1)	(-8,13)	(-5,5)	(2,25)	(8,19)	
L1D 9>	(-1,37)	(-5,23)	(-4,63)	(1,78)	(-23,1)	(41,17)	(2,89)	(-17,10)	(-8,35)	(-7,42)	(-13,40)	(-42,45)	(-2,123)	(15,6)	(-3,78)	(-6,76)	
L1D 10>	(6,19)	(41,16)	(-8,55)	(-2,33)	(-13,2)	(-7,10)	(23,12)	(-1,33)	(-3,107)	(0,17)	(-4,38)	(-9,18)	(-6,29)	(32,17)	(1,15)	(-42,21)	
L1D 11>	(22,79)	(-12,4)	(-6,1)	(-19,5)	(-7,4)	(-42,1)	(-1,11)	(-3,7)	(23,5)	(-2,8)	(-41,1)	(-27,3)	(17,3)	(-9,3)	(-4,35)	(-28,5)	
L1D 12>	(-5,62)	(-1,17)	(41,4)	(-10,27)	(-12,7)	(1,18)	(-3,79)	(-6,13)	(-7,1)	(-42,10)	(-9,12)	(2,5)	(-2,45)	(-8,44)	(-4,14)	(-11,12)	
L1D 13>	(-12,9)	(-11,13)	(-13,48)	(8,92)	(6,7)	(-28,1)	(1,102)	(-3,9)	(0,71)	(-9,11)	(-2,19)	(-4,4)	(-1,8)	(-10,8)	(-6,26)	(7,13)	
L1D 14>	(-27,2)	(-11,1)	(-12,5)	(-6,3)	(-7,5)	(2,80)	(29,1)	(-1,5)	(-2,14)	(-4,2)	(31,1)	(-29,2)	(-3,3)	(3,12)	(-10,9)	(4,1)	
L1D 15>	(-6,48)	(-14,53)	(-42,64)	(-4,108)	(-5,69)	(-1,21)	(41,10)	(-11,118)	(32,30)	(-3,62)	(-12,66)	(-2,55)	(-13,56)	(-9,26)	(-8,1)	(-10,100)	
L1D 16>	(-42,10)	(41,5)	(110,1)	(1,68)	(-14,8)	(-16,29)	(-1,85)	(-6,79)	(-3,2)	(-4,31)	(40,6)	(-12,4)	(-2,6)	(-13,13)	(-58,3)	(-15,3)	
L1D 17>	(-27,114)	(-13,3)	(-15,0)	(-12,0)	(-4,1)	(1,22)	(-42,0)	(-11,0)	(-3,0)	(-6,5)	(-2,1)	(-17,0)	(-44,0)	(0,0)	(27,0)	(-14,3)	
L1D 18>	(-15,15)	(-6,7)	(-42,9)	(-14,5)	(-322,1)	(-1,1)	(-17,3)	(-5,2)	(1,97)	(-13,5)	(-3,15)	(-16,8)	(-28,1)	(21,2)	(-2,2)	(-7,1)	
L1D 19>	(38,1)	(-15,5)	(-4,4)	(1,9)	(28,1)	(-19,2)	(-18,1)	(-16,1)	(-6,3)	(230,1)	(0,1)	(220,1)	(-5,0)	(-1,5)	(11,84)	(-17,5)	
L1D 20>	(-19,16)	(3,5)	(-1,14)	(-6,40)	(-7,107)	(4,1)	(-3,9)	(30,42)	(-17,7)	(-2,32)	(-42,15)	(-20,56)	(-18,14)	(-15,9)	(-16,13)	(-5,5)	
L1D 21>	(0,1)	(1,78)	(-8,24)	(-42,5)	(-19,8)	(-6,2)	(-4,7)	(-22,4)	(-16,2)	(3,37)	(-2,17)	(-20,3)	(-1,6)	(-18,9)	(-15,4)	(-3,8)	
L1D 22>	(-74,1)	(-3,4)	(-4,9)	(-66,1)	(-23,1)	(2,2)	(-12,108)	(-2,1)	(-42,1)	(-17,3)	(-1,1)	(-20,7)	(146,2)	(-18,4)	(-7,1)	(-19,1)	
L1D 23>	(-4,93)	(1,13)	(9,4)	(-1,24)	(-24,45)	(-3,29)	(-21,47)	(-19,60)	(0,11)	(-20,43)	(-42,54)	(-2,59)	(-6,9)	(-22,16)	(-23,23)	(-18,72)	
L1D 24>	(-3,8)	(-19,127)	(-1,53)	(-20,6)	(-23,2)	(146,4)	(-22,3)	(0,5)	(-42,14)	(29,5)	(9,2)	(1,3)	(-25,16)	(-5,18)	(-21,50)	(-4,4)	
L1D 25>	(-68,67)	(-21,45)	(-2,113)	(-4,33)	(-26,39)	(-42,58)	(-23,23)	(-40,48)	(-27,34)	(16,18)	(-25,8)	(9,2)	(15,22)	(-88,34)	(2,7)	(1,13)	
L1D 26>	(-25,1)	(54,19)	(2,14)	(-2,8)	(-41,23)	(0,8)	(-21,15)	(-20,7)	(-42,89)	(1,9)	(-24,6)	(-3,60)	(-23,14)	(-26,16)	(-22,19)	(-27,30)	
L1D 27>	(-42,111)	(12,12)	(0,9)	(-25,10)	(-23,35)	(-24,17)	(-28,45)	(-26,14)	(-4,65)	(-27,18)	(-11,1)	(-29,13)	(-41,36)	(1,25)	(2,12)	(-40,26)	
L1D 28>	(-5,37)	(-26,27)	(-27,49)	(-25,5)	(4,8)	(-22,6)	(25,1)	(2,7)	(-29,64)	(-41,30)	(13,2)	(-1,45)	(-40,25)	(-42,91)	(12,12)	(-14,18)	
L1D 29>	(-26,4)	(-43,15)	(-28,14)	(1,6)	(-37,11)	(-1,8)	(-2,8)	(-42,65)	(9,1)	(11,5)	(-30,24)	(-40,16)	(-41,9)	(2,5)	(-25,8)	(-27,3)	
L1D 30>	(26,1)	(0,7)	(-28,3)	(5,67)	(-3,6)	(-29,6)	(-41,6)	(-39,21)	(-31,25)	(-1,8)	(2,5)	(-27,10)	(1,6)	(146,1)	(-40,14)	(-42,87)	
L1D 31>	(-42,117)	(-88,5)	(1,29)	(-6,31)	(-33,5)	(7,6)	(-2,5)	(10,24)	(-32,42)	(9,11)	(2,18)	(0,24)	(40,3)	(-40,41)	(21,4)	(-41,21)	
L1D 32>	(-34,1)	(-28,3)	(-1,60)	(-27,91)	(-42,120)	(-33,40)	(-41,4)	(-35,8)	(-8,31)	(10,14)	(0,13)	(-25,18)	(-31,43)	(-26,6)	(70,5)	(-29,30)	
L1D 33>	(-35,1)	(-38,3)	(-7,8)	(-40,30)	(-34,46)	(1,6)	(8,10)	(-1,54)	(0,7)	(2,13)	(4,6)	(9,9)	(-39,4)	(-42,112)	(13,3)	(-41,13)	
L1D 34>	(-25,50)	(-9,15)	(1,39)	(-68,14)	(124,1)	(-40,15)	(-42,115)	(-35,54)	(13,4)	(2,25)	(0,10)	(5,14)	(25,62)	(-8,7)	(7,8)	(-41,14)	
L1D 35>	(-36,22)	(7,8)	(-40,10)	(-37,6)	(9,9)	(2,9)	(4,8)	(-42,69)	(-43,7)	(5,5)	(0,5)	(1,13)	(-8,22)	(-117,1)	(6,6)	(-60,4)	
L1D 36>	(224,1)	(-38,4)	(-37,37)	(7,2)	(-36,9)	(-42,81)	(128,5)	(-11,3)	(-39,5)	(10,5)	(1,3)	(2,13)	(-41,9)	(5,11)	(-2,12)	(-40,13)	
L1D 37>	(62,1)	(-21,5)	(6,5)	(-39,13)	(-40,29)	(-12,8)	(0,6)	(159,4)	(-41,20)	(-42,66)	(-4,3)	(3,4)	(1,8)	(-38,49)	(8,2)	(4,4)	
[...]
L1D 489>	(-489,3)	(-170,1)	(-22,1)	(1,1)	(-277,1)	(-210,1)	(-34,1)	(-71,1)	(-11,1)	(-128,1)	(-77,1)	(-114,1)	(4,1)	(-485,1)	(-13,1)	(-9,1)	
L1D 490>	(1,5)	(-14,4)	(4,8)	(-248,2)	(-28,2)	(-2,8)	(-300,1)	(6,6)	(-4,6)	(-10,7)	(-8,4)	(-370,2)	(14,2)	(-362,1)	(-1,1)	(-491,1)	
L1D 491>	(-435,1)	(1,5)	(-12,1)	(-76,1)	(-121,1)	(-489,1)	(-4,3)	(-198,1)	(-491,1)	(-146,1)	(-129,1)	(-3,1)	(-214,1)	(11,1)	(-211,1)	(-69,1)	
L1D 492>	(1,4)	(-464,2)	(-20,2)	(-14,6)	(-494,2)	(-209,1)	(4,7)	(-394,1)	(-4,9)	(-360,1)	(-242,2)	(-340,1)	(8,5)	(0,4)	(-256,1)	(-28,1)	
L1D 493>	(1,3)	(-477,1)	(-199,1)	(-499,1)	(-158,1)	(-11,1)	(-216,1)	(-52,1)	(-57,1)	(-493,1)	(-449,1)	(-167,1)	(-207,1)	(4,1)	(-469,1)	(-69,1)	
L1D 494>	(-6,2)	(-18,5)	(-334,1)	(1,4)	(-446,1)	(-4,2)	(-210,1)	(-14,3)	(-218,2)	(4,3)	(-212,1)	(-34,1)	(-139,2)	(-158,1)	(-47,1)	(-8,8)	
L1D 495>	(-228,1)	(1,1)	(-497,1)	(-102,1)	(-198,1)	(-182,1)	(-125,1)	(-113,1)	(-494,1)	(-184,1)	(-9,1)	(-62,1)	(4,3)	(-67,1)	(-475,1)	(-68,1)	
L1D 496>	(0,6)	(-103,1)	(-14,3)	(-22,1)	(-440,1)	(-10,1)	(8,1)	(-20,7)	(-18,4)	(-274,1)	(-26,4)	(-4,5)	(-386,1)	(-260,1)	(-30,1)	(-320,3)	
L1D 497>	(1,2)	(-118,1)	(-1,1)	(-503,1)	(-133,1)	(-172,1)	(-496,2)	(-469,1)	(-387,1)	(-27,1)	(-500,1)	(-13,2)	(-179,1)	(-71,2)	(12,1)	(-19,1)	
L1D 498>	(-12,3)	(-258,1)	(-302,1)	(-2,3)	(-499,1)	(0,3)	(-244,1)	(-20,1)	(-474,3)	(-195,1)	(-32,1)	(-24,1)	(-14,3)	(-188,1)	(-334,1)	(-270,1)	
L1D 499>	(-219,1)	(-192,1)	(-23,1)	(-499,3)	(-154,1)	(-222,1)	(-107,1)	(9,1)	(-130,1)	(-140,1)	(-407,1)	(-285,1)	(-13,1)	(-218,1)	(-156,1)	(-109,1)	
L1D 500>	(2,4)	(-8,2)	(-214,1)	(-410,1)	(-26,2)	(-326,2)	(-99,1)	(-30,1)	(-330,1)	(-20,5)	(-135,1)	(-328,1)	(-260,1)	(-96,1)	(-100,1)	(-2,3)	
L1D 501>	(-142,1)	(-116,1)	(-212,1)	(-63,1)	(-503,1)	(-505,1)	(-144,1)	(-24,1)	(-37,1)	(-12,1)	(-441,2)	(-1,1)	(-48,1)	(-111,1)	(-51,1)	(-89,1)	
L1D 502>	(-304,1)	(-208,1)	(4,1)	(1,2)	(-162,1)	(-26,3)	(0,1)	(-50,1)	(-350,1)	(-39,2)	(-356,1)	(-446,1)	(-254,1)	(-70,1)	(-488,1)	(-486,1)	
L1D 503>	(4,2)	(1,4)	(-31,2)	(-213,1)	(-112,1)	(-107,1)	(-70,1)	(-203,1)	(-15,1)	(-483,1)	(-155,1)	(-168,1)	(-65,1)	(-134,1)	(-154,1)	(-1,1)	
L1D 504>	(-20,2)	(-11,1)	(-2,2)	(-410,1)	(-304,1)	(-10,3)	(0,2)	(-15,1)	(-476,1)	(2,3)	(-262,2)	(-104,3)	(-57,1)	(-6,2)	(-24,2)	(-430,1)	
L1D 505>	(-201,1)	(-68,1)	(-365,1)	(-204,1)	(-199,1)	(-64,1)	(-190,1)	(-144,1)	(-92,1)	(-37,1)	(-197,1)	(-125,1)	(-211,1)	(-27,1)	(-311,1)	(-5,1)	
L1D 506>	(-456,1)	(-246,1)	(-4,1)	(-242,1)	(-213,1)	(-110,1)	(0,1)	(-150,1)	(-20,1)	(-82,1)	(-26,1)	(-316,1)	(-342,1)	(-298,1)	(-226,2)	(-400,1)	
L1D 507>	(-99,1)	(-104,1)	(-40,1)	(-214,1)	(-152,1)	(-85,1)	(-177,1)	(-190,1)	(-119,1)	(-135,1)	(-5,1)	(-19,1)	(1,0)	(1,0)	(1,0)	(1,0)	
L1D 508>	(-20,1)	(-256,1)	(-308,1)	(-488,1)	(-19,1)	(-482,1)	(-292,1)	(-72,1)	(-320,1)	(-506,1)	(-228,1)	(-10,1)	(-30,1)	(-404,1)	(-48,1)	(-103,1)	
L1D 509>	(-36,1)	(-217,1)	(-84,1)	(-213,1)	(-509,1)	(-79,1)	(-185,1)	(-104,1)	(-507,2)	(-35,1)	(-508,1)	(-39,1)	(-186,1)	(1,0)	(1,0)	(1,0)	
L1D 510>	(-22,1)	(-153,1)	(-508,2)	(-172,1)	(-206,1)	(-28,1)	(-16,1)	(-73,1)	(-141,1)	(-213,1)	(-344,1)	(-14,1)	(-428,1)	(-338,1)	(1,0)	(1,0)	
L1D 511>	(-107,1)	(-168,1)	(-200,1)	(-33,2)	(-47,1)	(-141,1)	(-77,1)	(-8,1)	(-63,1)	(-132,1)	(-167,1)	(1,0)	(1,0)	(1,0)	(1,0)	(1,0)	

L2C -64>	(1,180)	(19,1)	(2,36)	(-1,24)	(-2,58)	(3,26)	(4,9)	(-58,22)	(6,106)	(-59,19)	(11,12)	(10,6)	(-3,22)	(20,3)	(9,5)	(5,40)	
L2C -63>	(1,180)	(2,1)	(15,3)	(7,1)	(4,1)	(5,40)	(10,4)	(8,1)	(3,1)	(11,1)	(1,0)	(1,0)	(1,0)	(1,0)	(1,0)	(1,0)	
L2C -62>	(2,3)	(1,205)	(4,4)	(24,2)	(60,4)	(3,5)	(5,1)	(62,1)	(37,1)	(0,1)	(-1,16)	(7,1)	(43,1)	(41,1)	(46,4)	(20,1)	
L2C -61>	(1,142)	(18,1)	(2,10)	(3,10)	(8,3)	(4,11)	(9,3)	(10,1)	(-2,5)	(-1,11)	(41,1)	(6,1)	(50,1)	(5,6)	(24,1)	(28,1)	
L2C -60>	(1,146)	(9,3)	(-1,10)	(10,1)	(4,2)	(-3,5)	(7,2)	(5,3)	(11,3)	(18,1)	(2,6)	(12,1)	(61,1)	(6,1)	(60,1)	(3,12)	
L2C -59>	(1,244)	(11,53)	(16,28)	(-4,11)	(5,163)	(2,5)	(-1,11)	(6,181)	(3,10)	(0,2)	(4,5)	(32,2)	(12,2)	(21,3)	(26,1)	(9,2)	
L2C -58>	(3,1)	(5,147)	(10,20)	(16,6)	(1,55)	(4,1)	(-5,1)	(2,3)	(9,1)	(21,1)	(0,1)	(-1,1)	(6,0)	(15,1)	(31,0)	(8,0)	
L2C -57>	(1,135)	(3,3)	(2,6)	(5,2)	(-6,3)	(11,1)	(4,3)	(57,3)	(-5,0)	(7,1)	(10,1)	(18,0)	(-1,10)	(6,2)	(59,0)	(42,0)	
L2C -56>	(2,6)	(5,7)	(1,132)	(-5,4)	(3,9)	(55,1)	(4,12)	(9,19)	(53,3)	(-7,12)	(35,3)	(36,3)	(31,3)	(22,3)	(-1,25)	(0,3)	
L2C -55>	(3,28)	(38,1)	(1,158)	(-1,11)	(8,6)	(-5,3)	(4,6)	(9,6)	(0,4)	(39,3)	(-2,4)	(36,13)	(2,11)	(52,3)	(49,4)	(25,3)	
L2C -54>	(-6,2)	(8,12)	(1,142)	(6,21)	(-1,7)	(-5,6)	(4,10)	(7,4)	(48,1)	(-8,1)	(40,2)	(-9,5)	(52,14)	(2,7)	(0,2)	(54,5)	
L2C -53>	(2,9)	(5,43)	(1,168)	(-1,20)	(54,6)	(4,7)	(50,2)	(-10,9)	(-2,2)	(36,12)	(10,5)	(52,4)	(34,2)	(21,2)	(20,4)	(3,14)	
L2C -52>	(2,11)	(1,138)	(49,6)	(33,16)	(26,1)	(30,2)	(-1,22)	(11,4)	(35,13)	(36,12)	(-2,3)	(50,2)	(34,3)	(4,4)	(12,3)	(-11,7)	
L2C -51>	(1,128)	(33,9)	(14,4)	(2,10)	(3,2)	(35,22)	(6,3)	(4,4)	(13,5)	(-1,17)	(43,1)	(27,2)	(9,2)	(38,2)	(-12,6)	(45,4)	
L2C -50>	(-1,12)	(53,2)	(1,150)	(48,3)	(8,2)	(36,3)	(16,1)	(33,11)	(3,18)	(14,6)	(-4,6)	(2,18)	(9,3)	(21,2)	(-13,6)	(31,5)	
L2C -49>	(-1,12)	(1,153)	(8,10)	(13,4)	(14,46)	(2,12)	(48,9)	(45,4)	(7,11)	(33,12)	(49,4)	(3,4)	(32,10)	(-4,1)	(15,3)	(-14,6)	
L2C -48>	(1,160)	(13,4)	(48,25)	(8,4)	(5,10)	(2,11)	(22,4)	(0,10)	(-2,3)	(32,11)	(-1,11)	(3,7)	(-5,4)	(-15,6)	(10,5)	(6,2)	
L2C -47>	(2,13)	(1,205)	(-1,13)	(3,7)	(-2,5)	(10,4)	(-16,7)	(39,3)	(45,1)	(31,2)	(28,1)	(32,4)	(14,16)	(51,1)	(22,3)	(52,3)	
L2C -46>	(3,33)	(-6,2)	(44,9)	(1,178)	(47,6)	(-17,11)	(42,9)	(5,7)	(46,8)	(14,3)	(6,5)	(7,6)	(4,4)	(2,15)	(-2,12)	(-1,10)	
L2C -45>	(1,161)	(8,7)	(-2,6)	(42,7)	(24,3)	(3,11)	(5,1)	(-1,25)	(29,3)	(25,3)	(4,3)	(50,2)	(2,10)	(31,4)	(-18,8)	(6,7)	
L2C -44>	(7,9)	(1,174)	(42,4)	(3,18)	(39,4)	(2,38)	(-1,16)	(44,14)	(-2,6)	(15,4)	(28,1)	(45,8)	(35,3)	(19,3)	(40,5)	(17,3)	
L2C -43>	(1,203)	(2,16)	(-1,33)	(4,6)	(41,11)	(19,5)	(3,12)	(13,2)	(42,5)	(-20,10)	(20,2)	(27,2)	(45,3)	(24,1)	(33,2)	(11,6)	
L2C -42>	(1,244)	(-21,6)	(14,3)	(-1,30)	(3,19)	(2,15)	(44,5)	(20,6)	(-5,8)	(41,5)	(18,4)	(15,8)	(6,7)	(-2,8)	(40,1)	(43,20)	
L2C -41>	(5,14)	(1,143)	(4,9)	(2,19)	(-1,17)	(13,5)	(0,9)	(19,4)	(6,1)	(40,11)	(42,8)	(41,3)	(12,2)	(-22,4)	(8,2)	(-13,1)	
L2C -40>	(1,196)	(2,14)	(-1,24)	(41,18)	(18,3)	(4,6)	(17,4)	(38,4)	(34,3)	(22,4)	(39,5)	(-9,2)	(5,5)	(6,7)	(21,18)	(35,3)	
L2C -39>	(1,189)	(0,7)	(41,10)	(-1,36)	(21,18)	(40,81)	(-24,13)	(2,37)	(5,1)	(10,3)	(6,15)	(38,21)	(8,8)	(20,23)	(37,12)	(4,9)	
L2C -38>	(1,109)	(2,29)	(33,9)	(19,11)	(31,1)	(-2,5)	(20,45)	(-1,43)	(39,25)	(6,4)	(46,3)	(4,8)	(0,7)	(22,16)	(21,17)	(-25,7)	
L2C -37>	(19,33)	(2,26)	(-1,23)	(1,129)	(3,16)	(14,8)	(18,58)	(32,3)	(5,16)	(40,11)	(36,6)	(33,20)	(-26,4)	(17,8)	(20,14)	(9,1)	
L2C -36>	(33,1)	(1,109)	(0,7)	(20,40)	(2,28)	(27,7)	(18,52)	(42,3)	(34,5)	(17,48)	(-1,29)	(3,27)	(19,34)	(4,4)	(6,7)	(37,10)	
L2C -35>	(7,11)	(1,165)	(14,1)	(18,37)	(27,5)	(12,5)	(2,37)	(6,5)	(3,16)	(34,6)	(-1,42)	(9,6)	(19,59)	(43,3)	(5,6)	(17,26)	
L2C -34>	(3,27)	(-1,30)	(17,33)	(18,26)	(12,8)	(26,1)	(1,157)	(2,32)	(6,8)	(31,5)	(7,15)	(19,16)	(0,2)	(10,4)	(-2,7)	(35,6)	
L2C -33>	(1,145)	(-1,23)	(7,6)	(17,8)	(2,33)	(16,6)	(6,4)	(33,6)	(14,7)	(0,3)	(31,6)	(11,1)	(3,45)	(18,4)	(-2,3)	(32,5)	
L2C -32>	(1,246)	(3,117)	(19,9)	(21,9)	(-1,84)	(5,9)	(33,21)	(2,195)	(31,24)	(6,15)	(0,8)	(49,1)	(4,10)	(28,8)	(-2,10)	(18,5)	
L2C -31>	(1,149)	(2,30)	(12,12)	(3,24)	(24,2)	(-7,1)	(-1,25)	(32,7)	(41,1)	(0,12)	(10,5)	(13,10)	(-2,7)	(25,3)	(-4,3)	(17,5)	
L2C -30>	(-1,54)	(1,188)	(6,11)	(13,20)	(40,3)	(11,18)	(3,31)	(-3,13)	(2,68)	(0,6)	(31,24)	(14,5)	(12,12)	(4,9)	(-5,1)	(50,3)	
L2C -29>	(-1,35)	(4,14)	(1,183)	(10,10)	(38,4)	(2,56)	(21,1)	(3,31)	(6,19)	(13,24)	(36,6)	(30,9)	(34,3)	(11,44)	(32,4)	(18,13)	
L2C -28>	(11,1)	(-1,58)	(1,233)	(-35,3)	(-4,5)	(4,17)	(-5,4)	(3,44)	(32,8)	(5,12)	(-15,5)	(-11,2)	(27,7)	(14,6)	(10,35)	(12,24)	
L2C -27>	(1,234)	(16,13)	(-1,60)	(4,14)	(12,16)	(28,12)	(20,6)	(2,53)	(7,5)	(10,8)	(15,7)	(3,42)	(8,1)	(-2,19)	(18,5)	(6,19)	
L2C -26>	(1,137)	(24,7)	(-1,39)	(-2,11)	(2,21)	(5,10)	(16,4)	(27,7)	(3,12)	(15,2)	(-3,3)	(-5,1)	(10,3)	(-4,5)	(7,8)	(6,5)	
L2C -25>	(9,19)	(1,139)	(2,23)	(19,4)	(4,9)	(15,1)	(-1,44)	(11,7)	(26,8)	(20,4)	(21,5)	(-2,10)	(3,9)	(-11,1)	(16,7)	(-13,3)	
L2C -24>	(23,5)	(-2,12)	(7,5)	(1,183)	(-1,43)	(22,6)	(2,18)	(19,3)	(4,19)	(25,9)	(-7,3)	(3,23)	(8,10)	(5,7)	(10,9)	(14,1)	
L2C -23>	(1,233)	(-1,96)	(4,31)	(36,15)	(3,34)	(2,28)	(14,12)	(5,26)	(24,17)	(6,20)	(21,15)	(22,16)	(-2,30)	(-6,1)	(12,17)	(-4,14)	
L2C -22>	(1,249)	(35,16)	(4,34)	(24,26)	(-2,34)	(2,88)	(23,128)	(32,1)	(21,43)	(-1,126)	(11,21)	(18,19)	(-4,15)	(8,19)	(28,15)	(3,45)	
L2C -21>	(1,178)	(35,15)	(18,8)	(-1,63)	(-15,1)	(22,8)	(-2,11)	(36,16)	(23,11)	(21,9)	(2,37)	(4,11)	(19,13)	(3,23)	(6,13)	(12,5)	
L2C -20>	(-1,64)	(1,233)	(-4,17)	(12,1)	(19,22)	(36,23)	(3,23)	(-3,8)	(17,9)	(35,13)	(-2,16)	(5,5)	(24,7)	(20,12)	(2,53)	(4,29)	
L2C -19>	(6,5)	(19,17)	(1,192)	(4,6)	(2,30)	(3,21)	(18,27)	(-2,6)	(35,10)	(0,9)	(5,5)	(16,1)	(20,18)	(-3,5)	(-1,36)	(36,3)	
L2C -18>	(1,174)	(34,6)	(2,27)	(19,31)	(-5,5)	(17,4)	(3,26)	(0,2)	(-1,22)	(18,2)	(35,3)	(11,2)	(-2,15)	(36,2)	(15,3)	(9,1)	
L2C -17>	(-2,21)	(-7,1)	(1,157)	(18,19)	(25,2)	(2,22)	(-6,11)	(13,1)	(-5,7)	(-1,6)	(-3,12)	(7,4)	(3,15)	(19,3)	(17,1)	(15,4)	
L2C -16>	(2,37)	(-32,1)	(-18,10)	(1,156)	(17,17)	(-1,46)	(15,8)	(0,3)	(3,34)	(-3,6)	(-19,9)	(13,6)	(-7,3)	(16,10)	(-6,3)	(-2,6)	
L2C -15>	(1,135)	(21,1)	(16,12)	(22,5)	(18,4)	(-1,36)	(3,17)	(-10,5)	(8,5)	(14,5)	(-2,29)	(9,4)	(17,14)	(12,5)	(-8,3)	(2,15)	
L2C -14>	(15,23)	(-4,13)	(4,25)	(1,233)	(-1,58)	(16,9)	(7,19)	(-5,18)	(-9,11)	(-15,7)	(2,53)	(12,1)	(25,5)	(8,11)	(9,13)	(3,30)	
L2C -13>	(14,12)	(1,133)	(2,18)	(16,4)	(8,15)	(-4,3)	(3,7)	(18,4)	(-1,33)	(5,1)	(-3,5)	(7,9)	(10,5)	(13,2)	(-6,3)	(12,13)	
L2C -12>	(1,197)	(2,19)	(13,10)	(-2,9)	(4,6)	(-3,5)	(11,8)	(19,3)	(-1,35)	(8,8)	(6,6)	(-12,1)	(15,4)	(5,7)	(-4,8)	(0,14)	
L2C -11>	(1,158)	(5,24)	(-18,1)	(-1,26)	(4,5)	(6,21)	(17,4)	(2,13)	(8,3)	(-5,6)	(12,8)	(3,10)	(11,11)	(-6,4)	(16,13)	(-7,2)	
L2C -10>	(2,22)	(-1,50)	(1,239)	(9,14)	(-7,8)	(11,21)	(-6,1)	(10,10)	(15,13)	(5,56)	(7,14)	(6,6)	(-4,5)	(-5,8)	(14,10)	(0,34)	
L2C -9>	(7,13)	(1,207)	(-10,3)	(-6,4)	(8,11)	(4,11)	(15,5)	(10,28)	(12,6)	(6,18)	(3,20)	(-1,34)	(5,13)	(-7,1)	(14,3)	(2,27)	
L2C -8>	(1,162)	(3,24)	(6,15)	(2,23)	(7,10)	(4,13)	(8,31)	(11,5)	(0,13)	(12,6)	(-6,4)	(-1,34)	(9,27)	(59,1)	(-10,3)	(5,15)	
L2C -7>	(1,195)	(-2,35)	(2,71)	(9,9)	(8,46)	(-3,8)	(11,4)	(5,29)	(6,16)	(3,19)	(22,5)	(-1,50)	(4,14)	(38,1)	(10,10)	(-4,6)	
L2C -6>	(1,219)	(7,59)	(2,53)	(5,25)	(12,4)	(-5,5)	(-1,33)	(10,11)	(4,53)	(-3,4)	(8,15)	(3,23)	(11,38)	(19,1)	(6,23)	(9,14)	
L2C -5>	(6,156)	(1,59)	(-2,10)	(10,12)	(5,6)	(2,19)	(4,19)	(3,16)	(7,21)	(-18,1)	(-1,39)	(8,14)	(23,4)	(11,21)	(19,3)	(0,5)	
L2C -4>	(16,1)	(1,163)	(2,59)	(-9,1)	(-27,5)	(5,81)	(3,57)	(-3,6)	(-1,111)	(6,91)	(0,10)	(-2,13)	(7,22)	(9,10)	(22,10)	(8,24)	
L2C -3>	(2,111)	(1,233)	(7,7)	(-1,199)	(6,90)	(-27,1)	(4,167)	(-3,16)	(10,9)	(0,22)	(-5,14)	(8,6)	(5,40)	(22,10)	(3,22)	(-2,38)	
L2C -2>	(-2,33)	(20,1)	(-1,34)	(-3,14)	(5,12)	(3,64)	(-6,6)	(-31,3)	(12,2)	(-7,5)	(0,34)	(1,215)	(2,10)	(4,59)	(6,10)	(-5,9)	
L2C -1>	(-2,49)	(-1,145)	(1,79)	(3,108)	(-62,1)	(4,33)	(-5,14)	(2,171)	(7,3)	(0,54)	(6,8)	(-3,17)	(-4,8)	(5,13)	(-6,5)	(-23,2)	
L2C 0>	(1,15)	(-5,1)	(-6,1)	(3,2)	(0,195)	(11,1)	(-1,55)	(-25,1)	(-57,0)	(-8,1)	(2,3)	(-3,2)	(8,0)	(57,0)	(5,0)	(-2,1)	
L2C 1>	(-57,1)	(1,231)	(-18,1)	(14,1)	(4,1)	(15,0)	(-1,0)	(-39,0)	(-10,1)	(-55,1)	(5,2)	(9,0)	(2,7)	(-3,0)	(-4,1)	(3,7)	
L2C 2>	(1,133)	(4,3)	(-4,1)	(2,23)	(-1,38)	(-25,1)	(-26,1)	(-20,1)	(-6,1)	(-3,3)	(-28,0)	(3,8)	(-54,0)	(18,3)	(-2,4)	(5,1)	
L2C 3>	(1,234)	(19,2)	(-11,1)	(4,2)	(-5,3)	(-1,90)	(23,1)	(3,7)	(-4,5)	(5,14)	(-3,2)	(-2,161)	(2,32)	(-16,1)	(18,2)	(6,7)	
L2C 4>	(1,168)	(-3,11)	(11,1)	(21,1)	(-1,47)	(-13,1)	(-4,3)	(2,32)	(4,11)	(18,9)	(-2,12)	(-7,2)	(5,7)	(3,17)	(-5,16)	(-6,3)	
L2C 5>	(1,45)	(10,3)	(24,2)	(-5,4)	(11,7)	(6,91)	(16,12)	(3,4)	(-58,9)	(-59,4)	(-1,8)	(2,3)	(-54,2)	(5,174)	(18,4)	(-36,2)	
L2C 6>	(1,24)	(5,204)	(-4,1)	(-7,2)	(3,3)	(10,2)	(0,2)	(-1,16)	(-2,7)	(19,1)	(2,5)	(15,2)	(-33,2)	(-5,11)	(-59,2)	(-11,1)	
L2C 7>	(4,13)	(1,247)	(2,21)	(-1,48)	(-6,70)	(-3,8)	(-2,31)	(-4,1)	(-9,2)	(3,14)	(14,13)	(-5,81)	(6,9)	(-8,8)	(5,4)	(19,5)	
L2C 8>	(1,235)	(-13,1)	(0,17)	(18,10)	(-5,40)	(2,39)	(3,20)	(-6,44)	(-1,27)	(24,3)	(-2,21)	(4,7)	(-9,5)	(-8,29)	(-7,22)	(-3,16)	
L2C 9>	(14,6)	(1,197)	(-5,36)	(-4,6)	(-2,35)	(-13,1)	(6,5)	(-8,18)	(2,44)	(3,16)	(-6,20)	(-1,73)	(-7,20)	(-12,3)	(19,3)	(5,19)	
L2C 10>	(-5,100)	(-9,53)	(1,167)	(6,67)	(-1,50)	(-11,17)	(4,16)	(-3,13)	(-7,20)	(-2,47)	(2,51)	(-22,1)	(10,3)	(-4,8)	(-6,16)	(5,75)	
L2C 11>	(7,9)	(1,177)	(-6,30)	(-3,7)	(-5,57)	(-35,1)	(-15,5)	(-7,9)	(-1,80)	(-9,12)	(5,213)	(-12,12)	(-11,28)	(3,13)	(-10,40)	(2,29)	
L2C 12>	(-1,67)	(1,208)	(-11,109)	(-16,7)	(-4,17)	(-10,15)	(-33,1)	(-9,13)	(-5,52)	(-13,19)	(0,4)	(2,7)	(-27,5)	(3,15)	(-6,19)	(6,8)	
L2C 13>	(-12,88)	(4,23)	(1,236)	(22,1)	(2,27)	(-11,14)	(-4,20)	(-14,15)	(-5,24)	(-15,9)	(14,8)	(6,7)	(-18,11)	(-6,19)	(-26,6)	(-1,53)	
L2C 14>	(-13,41)	(1,140)	(-6,11)	(2,18)	(-1,41)	(-10,9)	(33,6)	(-4,16)	(-16,10)	(-15,8)	(-21,1)	(0,6)	(-11,7)	(-12,12)	(9,2)	(-8,4)	
L2C 15>	(-13,11)	(-16,29)	(-9,12)	(-14,45)	(2,31)	(-31,1)	(1,242)	(-20,7)	(-5,32)	(-4,16)	(-11,10)	(-1,75)	(-7,11)	(-18,8)	(10,7)	(8,5)	
L2C 16>	(1,195)	(-5,17)	(-15,30)	(5,56)	(-10,25)	(9,1)	(-1,36)	(-11,17)	(2,30)	(-18,5)	(-14,16)	(-16,21)	(3,7)	(-3,4)	(-22,5)	(4,10)	
L2C 17>	(-5,7)	(-17,1)	(1,150)	(2,19)	(-4,6)	(-2,8)	(8,4)	(-1,24)	(-15,6)	(-10,5)	(-16,64)	(-29,3)	(-18,12)	(-14,11)	(-34,2)	(4,8)	
L2C 18>	(-51,1)	(-15,4)	(-17,214)	(-18,2)	(-16,10)	(1,121)	(2,4)	(-2,3)	(-19,9)	(-1,13)	(3,2)	(-20,4)	(-24,1)	(-3,1)	(19,4)	(36,1)	
L2C 19>	(-18,158)	(1,253)	(4,6)	(-17,26)	(5,17)	(-20,18)	(-16,32)	(-1,42)	(2,27)	(16,4)	(29,1)	(-21,8)	(-8,5)	(-30,3)	(14,4)	(-22,9)	
L2C 20>	(1,153)	(-14,4)	(15,1)	(-17,25)	(-10,6)	(-18,17)	(-8,9)	(-19,95)	(-21,26)	(-1,38)	(-22,54)	(-15,7)	(-13,8)	(-3,8)	(-12,8)	(-24,3)	
L2C 21>	(1,245)	(-18,19)	(2,37)	(-20,32)	(-23,1)	(4,10)	(-13,11)	(-19,23)	(-1,90)	(-22,100)	(-17,15)	(17,6)	(-26,11)	(-11,13)	(6,20)	(-6,11)	
L2C 22>	(1,195)	(-15,27)	(-14,10)	(-17,63)	(-18,167)	(-24,17)	(12,5)	(-8,10)	(-53,2)	(-6,7)	(-9,10)	(-1,95)	(13,7)	(-2,24)	(-21,38)	(-3,19)	
L2C 23>	(1,145)	(-15,8)	(-22,71)	(-19,7)	(-13,5)	(-1,25)	(-17,48)	(-3,5)	(-20,5)	(-18,41)	(2,12)	(-16,10)	(-5,7)	(-25,10)	(-30,1)	(-24,11)	
L2C 24>	(-16,26)	(-22,85)	(-17,22)	(1,153)	(-60,4)	(3,24)	(-19,12)	(-2,14)	(-1,44)	(-13,9)	(4,11)	(2,27)	(-23,34)	(-18,1)	(-31,7)	(-26,9)	
L2C 25>	(-22,33)	(1,228)	(-20,11)	(2,23)	(-3,12)	(-1,48)	(-16,71)	(-26,12)	(-29,8)	(-23,7)	(-24,25)	(-18,6)	(5,24)	(-6,11)	(8,1)	(-44,5)	
L2C 26>	(-1,89)	(-17,54)	(1,209)	(-9,7)	(-16,62)	(-30,1)	(-22,22)	(-2,14)	(-60,3)	(-15,12)	(-25,14)	(-12,5)	(-23,15)	(-21,5)	(-18,13)	(-63,12)	
L2C 27>	(1,208)	(4,7)	(-13,7)	(-60,7)	(2,22)	(-53,6)	(-35,7)	(-19,9)	(-26,12)	(-63,10)	(-1,37)	(-2,16)	(-5,9)	(-22,15)	(7,1)	(3,14)	
L2C 28>	(-27,16)	(1,213)	(3,14)	(-23,10)	(-1,43)	(-26,10)	(8,1)	(-60,3)	(-28,4)	(-33,7)	(13,4)	(-29,10)	(2,19)	(-4,11)	(-3,12)	(-5,19)	
L2C 29>	(1,134)	(-28,15)	(4,9)	(-23,11)	(-53,5)	(-1,48)	(-15,7)	(-5,10)	(-33,6)	(-27,10)	(5,12)	(2,1)	(-48,6)	(-10,5)	(-21,10)	(-41,4)	
L2C 30>	(-28,8)	(-16,6)	(-29,16)	(-26,5)	(-27,7)	(-5,6)	(-32,7)	(1,171)	(11,4)	(6,6)	(-21,8)	(-17,7)	(-1,30)	(-2,9)	(-15,1)	(5,13)	
L2C 31>	(-5,10)	(-1,45)	(-39,1)	(-23,5)	(1,160)	(4,9)	(3,10)	(2,18)	(-29,7)	(5,3)	(-15,5)	(-32,10)	(-22,3)	(-28,4)	(-27,5)	(-2,11)	
L2C 32>	(-22,18)	(1,128)	(-30,9)	(3,11)	(2,14)	(-31,30)	(-13,5)	(-1,36)	(-23,6)	(-24,6)	(7,1)	(-34,6)	(-16,21)	(-19,5)	(-2,3)	(-26,7)	
L2C 33>	(1,139)	(20,5)	(-17,20)	(-19,4)	(7,1)	(-11,6)	(2,18)	(-30,20)	(-1,19)	(3,18)	(-28,14)	(-29,8)	(-40,4)	(-16,28)	(-32,33)	(-12,3)	
L2C 34>	(1,96)	(2,21)	(-41,1)	(-24,6)	(-45,3)	(-11,6)	(-18,2)	(-32,13)	(-16,52)	(-33,30)	(8,2)	(-35,6)	(-39,10)	(-9,7)	(-17,47)	(-1,9)	
L2C 35>	(1,69)	(2,30)	(-18,3)	(-16,84)	(-34,23)	(3,14)	(-1,17)	(-17,130)	(-35,4)	(-39,7)	(-23,4)	(-2,8)	(-36,9)	(-42,1)	(-53,6)	(5,3)	
L2C 36>	(-17,96)	(3,6)	(-16,55)	(1,85)	(-26,1)	(-36,2)	(-1,24)	(-39,19)	(-6,2)	(4,8)	(-35,27)	(-33,4)	(-4,6)	(-24,3)	(-44,4)	(2,23)	
L2C 37>	(-54,3)	(-44,6)	(-21,3)	(1,68)	(-25,3)	(3,9)	(-39,28)	(2,24)	(-6,2)	(-1,25)	(-36,5)	(-41,2)	(-2,5)	(-56,1)	(-17,6)	(-52,3)	
L2C 38>	(-1,24)	(1,68)	(-17,14)	(-50,3)	(-10,4)	(2,17)	(-43,7)	(-34,5)	(-39,13)	(-26,1)	(-13,3)	(-51,2)	(-46,4)	(-25,1)	(-8,3)	(-44,4)	
L2C 39>	(1,35)	(-25,4)	(17,10)	(-18,9)	(-52,4)	(0,11)	(-32,1)	(-5,2)	(-10,3)	(-39,24)	(-1,32)	(2,18)	(3,9)	(5,2)	(-13,3)	(-44,3)	
L2C 40>	(1,142)	(3,14)	(-39,79)	(-30,3)	(-35,4)	(-54,8)	(-1,34)	(4,3)	(-11,6)	(0,21)	(-19,2)	(-29,1)	(-16,3)	(-37,3)	(2,26)	(-22,4)	
L2C 41>	(1,66)	(2,12)	(-42,1)	(-58,3)	(-40,14)	(0,36)	(-2,6)	(-43,4)	(4,3)	(-1,26)	(3,9)	(-44,6)	(-30,5)	(-39,40)	(-6,2)	(-47,3)	
L2C 42>	(1,49)	(2,22)	(-58,3)	(0,25)	(-41,19)	(-1,51)	(-22,4)	(-39,19)	(-43,10)	(3,10)	(4,9)	(-14,2)	(-5,3)	(-61,1)	(-51,1)	(-23,2)	
L2C 43>	(2,19)	(-58,2)	(-42,16)	(3,9)	(-41,10)	(-55,2)	(-44,8)	(-35,2)	(1,37)	(-3,1)	(0,2)	(-1,22)	(-46,4)	(-15,4)	(-31,4)	(-26,4)	
L2C 44>	(-45,4)	(-58,10)	(1,61)	(2,12)	(0,15)	(-1,11)	(-16,8)	(-38,3)	(-14,4)	(-39,13)	(-21,4)	(-2,5)	(-43,7)	(-42,2)	(3,1)	(-7,5)	
L2C 45>	(-17,5)	(0,2)	(3,13)	(-33,3)	(2,20)	(1,36)	(-23,2)	(5,4)	(-39,11)	(-1,8)	(-22,3)	(-40,1)	(-36,2)	(-42,2)	(-60,2)	(-29,1)	
L2C 46>	(1,46)	(-3,3)	(-23,1)	(-54,7)	(-16,6)	(-2,4)	(-44,5)	(2,5)	(-46,3)	(-4,5)	(-45,4)	(0,3)	(-37,4)	(-39,2)	(-1,11)	(-50,8)	
L2C 47>	(1,42)	(2,12)	(-16,15)	(-37,3)	(-35,3)	(-46,13)	(-28,4)	(-50,1)	(3,5)	(-39,4)	(10,1)	(-19,3)	(-57,1)	(-1,7)	(-21,1)	(-17,15)	
L2C 48>	(-49,8)	(-16,14)	(-54,28)	(-17,8)	(-46,21)	(-13,1)	(1,41)	(-48,23)	(-51,1)	(-47,18)	(-60,1)	(-34,1)	(-50,13)	(-43,1)	(2,9)	(-11,2)	
L2C 49>	(1,27)	(-53,4)	(2,5)	(-48,10)	(-17,15)	(-4,9)	(-16,33)	(-2,4)	(-1,2)	(-33,1)	(-32,3)	(-34,2)	(-44,3)	(10,1)	(-43,3)	(-46,3)	
L2C 50>	(1,26)	(-48,3)	(-51,4)	(-53,3)	(-2,3)	(2,10)	(-33,3)	(-45,2)	(-24,3)	(-17,22)	(-42,1)	(-16,15)	(-20,2)	(-4,5)	(-1,7)	(7,1)	
L2C 51>	(1,21)	(-53,9)	(2,6)	(-17,4)	(-1,7)	(-40,1)	(-54,1)	(-15,2)	(-16,19)	(-18,3)	(-33,2)	(-2,2)	(-50,2)	(-45,1)	(-5,1)	(-20,2)	
L2C 52>	(-1,4)	(-54,6)	(-4,6)	(1,31)	(-16,8)	(-37,2)	(-17,11)	(-53,7)	(3,1)	(-6,3)	(-47,4)	(-28,1)	(-55,1)	(5,4)	(-25,2)	(-48,3)	
L2C 53>	(1,15)	(-52,5)	(-50,1)	(-40,1)	(-12,1)	(-17,8)	(-3,3)	(7,1)	(-28,1)	(-19,2)	(2,4)	(-1,4)	(-43,2)	(-16,9)	(-42,1)	(-2,3)	
L2C 54>	(-1,1)	(-50,3)	(1,13)	(2,3)	(-27,3)	(-45,3)	(-61,2)	(-41,3)	(-21,1)	(-40,1)	(-56,2)	(-33,1)	(3,1)	(5,3)	(-19,2)	(-16,2)	
L2C 55>	(1,18)	(-57,1)	(-49,1)	(-36,2)	(-34,1)	(-52,2)	(0,19)	(-2,3)	(2,4)	(-31,1)	(-30,3)	(-51,4)	(-1,4)	(-32,1)	(-56,1)	(-21,1)	
L2C 56>	(1,12)	(-49,1)	(-59,1)	(-2,3)	(0,4)	(-35,1)	(-1,10)	(-33,1)	(-56,3)	(-30,1)	(-24,1)	(-48,1)	(-52,3)	(-12,1)	(-58,2)	(-37,1)	
L2C 57>	(1,13)	(-27,1)	(-57,3)	(-9,1)	(0,6)	(-23,1)	(-39,1)	(-35,2)	(-2,1)	(-56,4)	(-58,2)	(-34,1)	(-32,3)	(-1,3)	(-30,6)	(2,2)	
L2C 58>	(-54,1)	(-28,2)	(2,1)	(-57,4)	(-2,1)	(-26,2)	(-1,1)	(-45,1)	(-25,1)	(-58,1)	(4,1)	(-10,1)	(-37,2)	(-7,1)	(-62,2)	(0,1)	
L2C 59>	(-60,1)	(-56,1)	(-49,1)	(-25,1)	(-52,1)	(-47,1)	(1,4)	(-61,2)	(-58,3)	(-1,3)	(4,1)	(-21,1)	(-13,1)	(-48,2)	(-27,2)	(-33,2)	
L2C 60>	(1,5)	(-25,1)	(-3,1)	(-41,1)	(-56,1)	(-14,1)	(-1,2)	(-50,1)	(-60,1)	(-24,1)	(-61,3)	(-63,1)	(-49,1)	(-35,1)	(-6,1)	(-27,1)	
L2C 61>	(-60,2)	(-2,1)	(-55,1)	(-8,1)	(-31,1)	(-39,1)	(-42,1)	(-35,1)	(1,0)	(1,0)	(1,0)	(1,0)	(1,0)	(1,0)	(1,0)	(1,0)	
L2C 62>	(-1,1)	(1,3)	(-61,1)	(-24,1)	(-62,2)	(-55,1)	(-60,1)	(-29,1)	(-6,1)	(1,0)	(1,0)	(1,0)	(1,0)	(1,0)	(1,0)	(1,0)	
L2C 63>	(-13,3)	(-8,1)	(-18,1)	(1,0)	(1,0)	(1,0)	(1,0)	(1,0)	(1,0)	(1,0)	(1,0)	(1,0)	(1,0)	(1,0)	(1,0)	(1,0)	

DRAM Statistics
 CHANNEL 0
 RQ ROW_BUFFER_HIT:     305791  ROW_BUFFER_MISS:     746397
 DBUS_CONGESTED:     749593
 WQ ROW_BUFFER_HIT:      32593  ROW_BUFFER_MISS:     318236  FULL:          0

 AVG_CONGESTED_CYCLE: 6
