
*** ChampSim Multicore Out-of-Order Simulator ***

Warmup Instructions: 1000000
Simulation Instructions: 10000000
Number of CPUs: 4
LLC sets: 8192
LLC ways: 16
Off-chip DRAM Size: 4096 MB Channels: 1 Width: 64-bit Data Rate: 3200 MT/s

CPU 0 runs /home/virtualcse/Data-Prefetching/ChampSim/dpc3_traces/602.gcc_s-1850B.champsimtrace.xz
CPU 1 runs /home/virtualcse/Data-Prefetching/ChampSim/dpc3_traces/641.leela_s-334B.champsimtrace.xz
CPU 2 runs /home/virtualcse/Data-Prefetching/ChampSim/dpc3_traces/620.omnetpp_s-141B.champsimtrace.xz
CPU 3 runs /home/virtualcse/Data-Prefetching/ChampSim/dpc3_traces/605.mcf_s-472B.champsimtrace.xz
Ultra pref. initializing...
Ultra pref. initialized
Ultra pref. initializing...
Ultra pref. initialized
Ultra pref. initializing...
Ultra pref. initialized
Ultra pref. initializing...
Ultra pref. initialized
Ultra pref. initializing...
Ultra pref. initialized
Ultra pref. initializing...
Ultra pref. initialized
Ultra pref. initializing...
Ultra pref. initialized
Ultra pref. initializing...
Ultra pref. initialized

Warmup complete CPU 0 instructions: 1251387 cycles: 540427 (Simulation time: 0 hr 0 min 11 sec) 
Warmup complete CPU 1 instructions: 1220554 cycles: 540427 (Simulation time: 0 hr 0 min 11 sec) 
Warmup complete CPU 2 instructions: 1000002 cycles: 540427 (Simulation time: 0 hr 0 min 11 sec) 
Warmup complete CPU 3 instructions: 1277056 cycles: 540426 (Simulation time: 0 hr 0 min 11 sec) 

Heartbeat CPU 1 instructions: 10000002 cycles: 10211628 heartbeat IPC: 0.979276 cumulative IPC: 0.907793 (Simulation time: 0 hr 0 min 53 sec) 
Finished CPU 1 instructions: 10000001 cycles: 11011776 cumulative IPC: 0.908119 (Simulation time: 0 hr 1 min 0 sec) 
Heartbeat CPU 0 instructions: 10000000 cycles: 16899712 heartbeat IPC: 0.591726 cumulative IPC: 0.53478 (Simulation time: 0 hr 1 min 23 sec) 
Finished CPU 0 instructions: 10000003 cycles: 18364185 cumulative IPC: 0.544538 (Simulation time: 0 hr 1 min 33 sec) 
Heartbeat CPU 1 instructions: 20000001 cycles: 21270725 heartbeat IPC: 0.904233 cumulative IPC: 0.905894 (Simulation time: 0 hr 1 min 43 sec) 
Heartbeat CPU 3 instructions: 10000000 cycles: 22607584 heartbeat IPC: 0.442329 cumulative IPC: 0.395291 (Simulation time: 0 hr 1 min 49 sec) 
Finished CPU 3 instructions: 10000001 cycles: 25349720 cumulative IPC: 0.394482 (Simulation time: 0 hr 2 min 4 sec) 
Heartbeat CPU 2 instructions: 10000000 cycles: 29260266 heartbeat IPC: 0.34176 cumulative IPC: 0.313372 (Simulation time: 0 hr 2 min 17 sec) 
Finished CPU 2 instructions: 10000000 cycles: 31677243 cumulative IPC: 0.315684 (Simulation time: 0 hr 2 min 31 sec) 

CPU 0 Branch Prediction Accuracy: 96.2914% MPKI: 8.57873 Average ROB Occupancy at Mispredict: 50.5015

CPU 1 Branch Prediction Accuracy: 86.1613% MPKI: 15.9729 Average ROB Occupancy at Mispredict: 30.7235

CPU 2 Branch Prediction Accuracy: 96.1891% MPKI: 5.6957 Average ROB Occupancy at Mispredict: 85.3795

CPU 3 Branch Prediction Accuracy: 98.4735% MPKI: 1.59545 Average ROB Occupancy at Mispredict: 237.103

ChampSim completed all CPUs

Total Simulation Statistics (not including warmup)

CPU 0 cumulative IPC: 0.531268 instructions: 16829117 cycles: 31677243
L1D TOTAL     ACCESS:    7128351  HIT:    6700642  MISS:     427709
L1D LOAD      ACCESS:    3209392  HIT:    2893998  MISS:     315394
L1D RFO       ACCESS:    1452236  HIT:    1452231  MISS:          5
L1D PREFETCH  ACCESS:    2466723  HIT:    2354413  MISS:     112310
L1D WRITEBACK ACCESS:          0  HIT:          0  MISS:          0
L1I TOTAL     ACCESS:    1630677  HIT:    1630677  MISS:          0
L1I LOAD      ACCESS:    1630677  HIT:    1630677  MISS:          0
L1I RFO       ACCESS:          0  HIT:          0  MISS:          0
L1I PREFETCH  ACCESS:          0  HIT:          0  MISS:          0
L1I WRITEBACK ACCESS:          0  HIT:          0  MISS:          0
L2C TOTAL     ACCESS:    1221531  HIT:     915676  MISS:     305855
L2C LOAD      ACCESS:     268778  HIT:     219960  MISS:      48818
L2C RFO       ACCESS:          1  HIT:          0  MISS:          1
L2C PREFETCH  ACCESS:     952212  HIT:     695176  MISS:     257036
L2C WRITEBACK ACCESS:        540  HIT:        540  MISS:          0

L1D -512>	(9,17)	(-1,23)	(0,121)	(-8,2)	(1,43)	(4,32)	(2,4)	(-9,3)	(-2,3)	(5,37)	(68,4)	(3,19)	(38,1)	(10,9)	(6,6)	(-27,10)	
L1D -511>	(1,95)	(0,0)	(3,4)	(1,0)	(1,0)	(1,0)	(1,0)	(1,0)	(1,0)	(1,0)	(1,0)	(1,0)	(1,0)	(1,0)	(1,0)	(1,0)	
L1D -510>	(1,0)	(1,0)	(1,0)	(1,0)	(1,0)	(1,0)	(1,0)	(1,0)	(1,0)	(1,0)	(1,0)	(1,0)	(1,0)	(1,0)	(1,0)	(1,0)	
L1D -509>	(1,0)	(1,0)	(1,0)	(1,0)	(1,0)	(1,0)	(1,0)	(1,0)	(1,0)	(1,0)	(1,0)	(1,0)	(1,0)	(1,0)	(1,0)	(1,0)	
L1D -508>	(5,41)	(0,34)	(-2,7)	(2,5)	(1,0)	(1,0)	(1,0)	(1,0)	(1,0)	(1,0)	(1,0)	(1,0)	(1,0)	(1,0)	(1,0)	(1,0)	
L1D -507>	(1,2)	(23,1)	(1,0)	(1,0)	(1,0)	(1,0)	(1,0)	(1,0)	(1,0)	(1,0)	(1,0)	(1,0)	(1,0)	(1,0)	(1,0)	(1,0)	
L1D -506>	(2,1)	(3,15)	(0,3)	(122,1)	(1,0)	(1,0)	(1,0)	(1,0)	(1,0)	(1,0)	(1,0)	(1,0)	(1,0)	(1,0)	(1,0)	(1,0)	
L1D -505>	(5,1)	(1,0)	(1,0)	(1,0)	(1,0)	(1,0)	(1,0)	(1,0)	(1,0)	(1,0)	(1,0)	(1,0)	(1,0)	(1,0)	(1,0)	(1,0)	
L1D -504>	(85,1)	(0,1)	(1,0)	(1,0)	(1,0)	(1,0)	(1,0)	(1,0)	(1,0)	(1,0)	(1,0)	(1,0)	(1,0)	(1,0)	(1,0)	(1,0)	
L1D -503>	(0,3)	(5,5)	(-2,2)	(1,0)	(1,0)	(1,0)	(1,0)	(1,0)	(1,0)	(1,0)	(1,0)	(1,0)	(1,0)	(1,0)	(1,0)	(1,0)	
L1D -502>	(99,1)	(112,1)	(1,0)	(1,0)	(1,0)	(1,0)	(1,0)	(1,0)	(1,0)	(1,0)	(1,0)	(1,0)	(1,0)	(1,0)	(1,0)	(1,0)	
L1D -501>	(-6,1)	(342,1)	(4,1)	(1,0)	(1,0)	(1,0)	(1,0)	(1,0)	(1,0)	(1,0)	(1,0)	(1,0)	(1,0)	(1,0)	(1,0)	(1,0)	
L1D -500>	(4,1)	(1,0)	(1,0)	(1,0)	(1,0)	(1,0)	(1,0)	(1,0)	(1,0)	(1,0)	(1,0)	(1,0)	(1,0)	(1,0)	(1,0)	(1,0)	
L1D -499>	(29,1)	(1,0)	(1,0)	(1,0)	(1,0)	(1,0)	(1,0)	(1,0)	(1,0)	(1,0)	(1,0)	(1,0)	(1,0)	(1,0)	(1,0)	(1,0)	
L1D -498>	(146,1)	(2,1)	(85,3)	(1,0)	(1,0)	(1,0)	(1,0)	(1,0)	(1,0)	(1,0)	(1,0)	(1,0)	(1,0)	(1,0)	(1,0)	(1,0)	
L1D -497>	(1,0)	(1,0)	(1,0)	(1,0)	(1,0)	(1,0)	(1,0)	(1,0)	(1,0)	(1,0)	(1,0)	(1,0)	(1,0)	(1,0)	(1,0)	(1,0)	
L1D -496>	(3,1)	(135,1)	(1,0)	(1,0)	(1,0)	(1,0)	(1,0)	(1,0)	(1,0)	(1,0)	(1,0)	(1,0)	(1,0)	(1,0)	(1,0)	(1,0)	
L1D -495>	(9,2)	(0,1)	(146,1)	(1,0)	(1,0)	(1,0)	(1,0)	(1,0)	(1,0)	(1,0)	(1,0)	(1,0)	(1,0)	(1,0)	(1,0)	(1,0)	
L1D -494>	(0,1)	(112,2)	(146,1)	(1,0)	(1,0)	(1,0)	(1,0)	(1,0)	(1,0)	(1,0)	(1,0)	(1,0)	(1,0)	(1,0)	(1,0)	(1,0)	
L1D -493>	(1,1)	(0,1)	(1,0)	(1,0)	(1,0)	(1,0)	(1,0)	(1,0)	(1,0)	(1,0)	(1,0)	(1,0)	(1,0)	(1,0)	(1,0)	(1,0)	
L1D -492>	(0,2)	(9,3)	(1,0)	(1,0)	(1,0)	(1,0)	(1,0)	(1,0)	(1,0)	(1,0)	(1,0)	(1,0)	(1,0)	(1,0)	(1,0)	(1,0)	
L1D -491>	(-1,2)	(0,1)	(1,0)	(1,0)	(1,0)	(1,0)	(1,0)	(1,0)	(1,0)	(1,0)	(1,0)	(1,0)	(1,0)	(1,0)	(1,0)	(1,0)	
L1D -490>	(98,1)	(47,1)	(1,0)	(1,0)	(1,0)	(1,0)	(1,0)	(1,0)	(1,0)	(1,0)	(1,0)	(1,0)	(1,0)	(1,0)	(1,0)	(1,0)	
L1D -489>	(-3,1)	(1,0)	(1,0)	(1,0)	(1,0)	(1,0)	(1,0)	(1,0)	(1,0)	(1,0)	(1,0)	(1,0)	(1,0)	(1,0)	(1,0)	(1,0)	
L1D -488>	(-3,1)	(5,2)	(115,1)	(99,1)	(1,0)	(1,0)	(1,0)	(1,0)	(1,0)	(1,0)	(1,0)	(1,0)	(1,0)	(1,0)	(1,0)	(1,0)	
L1D -487>	(0,3)	(304,1)	(1,0)	(1,0)	(1,0)	(1,0)	(1,0)	(1,0)	(1,0)	(1,0)	(1,0)	(1,0)	(1,0)	(1,0)	(1,0)	(1,0)	
L1D -486>	(99,1)	(55,1)	(18,1)	(9,2)	(0,2)	(79,1)	(1,0)	(1,0)	(1,0)	(1,0)	(1,0)	(1,0)	(1,0)	(1,0)	(1,0)	(1,0)	
L1D -485>	(346,1)	(0,2)	(1,0)	(1,0)	(1,0)	(1,0)	(1,0)	(1,0)	(1,0)	(1,0)	(1,0)	(1,0)	(1,0)	(1,0)	(1,0)	(1,0)	
L1D -484>	(82,1)	(70,1)	(85,3)	(10,1)	(47,1)	(1,1)	(1,0)	(1,0)	(1,0)	(1,0)	(1,0)	(1,0)	(1,0)	(1,0)	(1,0)	(1,0)	
L1D -483>	(9,1)	(322,1)	(-2,1)	(1,0)	(1,0)	(1,0)	(1,0)	(1,0)	(1,0)	(1,0)	(1,0)	(1,0)	(1,0)	(1,0)	(1,0)	(1,0)	
L1D -482>	(98,1)	(38,1)	(354,1)	(-6,1)	(4,1)	(1,0)	(1,0)	(1,0)	(1,0)	(1,0)	(1,0)	(1,0)	(1,0)	(1,0)	(1,0)	(1,0)	
L1D -481>	(0,1)	(1,0)	(1,0)	(1,0)	(1,0)	(1,0)	(1,0)	(1,0)	(1,0)	(1,0)	(1,0)	(1,0)	(1,0)	(1,0)	(1,0)	(1,0)	
L1D -480>	(0,1)	(99,2)	(9,1)	(3,1)	(4,1)	(2,1)	(34,1)	(1,0)	(1,0)	(1,0)	(1,0)	(1,0)	(1,0)	(1,0)	(1,0)	(1,0)	
L1D -479>	(146,1)	(308,1)	(0,1)	(1,0)	(1,0)	(1,0)	(1,0)	(1,0)	(1,0)	(1,0)	(1,0)	(1,0)	(1,0)	(1,0)	(1,0)	(1,0)	
L1D -478>	(34,1)	(95,1)	(1,0)	(1,0)	(1,0)	(1,0)	(1,0)	(1,0)	(1,0)	(1,0)	(1,0)	(1,0)	(1,0)	(1,0)	(1,0)	(1,0)	
L1D -477>	(0,2)	(9,1)	(1,0)	(1,0)	(1,0)	(1,0)	(1,0)	(1,0)	(1,0)	(1,0)	(1,0)	(1,0)	(1,0)	(1,0)	(1,0)	(1,0)	
L1D -476>	(91,1)	(3,1)	(1,1)	(340,1)	(183,1)	(-2,1)	(277,1)	(0,3)	(409,1)	(1,0)	(1,0)	(1,0)	(1,0)	(1,0)	(1,0)	(1,0)	
L1D -475>	(0,3)	(1,0)	(1,0)	(1,0)	(1,0)	(1,0)	(1,0)	(1,0)	(1,0)	(1,0)	(1,0)	(1,0)	(1,0)	(1,0)	(1,0)	(1,0)	
L1D -474>	(62,1)	(0,4)	(129,1)	(197,1)	(4,1)	(18,1)	(1,0)	(1,0)	(1,0)	(1,0)	(1,0)	(1,0)	(1,0)	(1,0)	(1,0)	(1,0)	
L1D -473>	(256,1)	(0,2)	(9,1)	(52,1)	(1,0)	(1,0)	(1,0)	(1,0)	(1,0)	(1,0)	(1,0)	(1,0)	(1,0)	(1,0)	(1,0)	(1,0)	
L1D -472>	(128,1)	(2,1)	(4,1)	(1,0)	(1,0)	(1,0)	(1,0)	(1,0)	(1,0)	(1,0)	(1,0)	(1,0)	(1,0)	(1,0)	(1,0)	(1,0)	
L1D -471>	(1,1)	(0,1)	(262,1)	(1,0)	(1,0)	(1,0)	(1,0)	(1,0)	(1,0)	(1,0)	(1,0)	(1,0)	(1,0)	(1,0)	(1,0)	(1,0)	
L1D -470>	(45,1)	(0,6)	(124,1)	(127,1)	(34,1)	(1,2)	(121,1)	(370,1)	(62,1)	(1,0)	(1,0)	(1,0)	(1,0)	(1,0)	(1,0)	(1,0)	
L1D -469>	(350,1)	(3,4)	(23,1)	(1,0)	(1,0)	(1,0)	(1,0)	(1,0)	(1,0)	(1,0)	(1,0)	(1,0)	(1,0)	(1,0)	(1,0)	(1,0)	
L1D -468>	(9,3)	(20,1)	(0,1)	(69,1)	(479,1)	(103,1)	(1,0)	(1,0)	(1,0)	(1,0)	(1,0)	(1,0)	(1,0)	(1,0)	(1,0)	(1,0)	
L1D -467>	(0,1)	(1,0)	(1,0)	(1,0)	(1,0)	(1,0)	(1,0)	(1,0)	(1,0)	(1,0)	(1,0)	(1,0)	(1,0)	(1,0)	(1,0)	(1,0)	
L1D -466>	(3,13)	(490,1)	(-9,1)	(4,1)	(333,1)	(1,0)	(1,0)	(1,0)	(1,0)	(1,0)	(1,0)	(1,0)	(1,0)	(1,0)	(1,0)	(1,0)	
L1D -465>	(2,2)	(133,2)	(9,2)	(0,10)	(1,1)	(1,0)	(1,0)	(1,0)	(1,0)	(1,0)	(1,0)	(1,0)	(1,0)	(1,0)	(1,0)	(1,0)	
L1D -464>	(-1,1)	(17,1)	(0,3)	(2,10)	(132,3)	(1,1)	(4,34)	(1,0)	(1,0)	(1,0)	(1,0)	(1,0)	(1,0)	(1,0)	(1,0)	(1,0)	
L1D -463>	(131,5)	(1,5)	(17,1)	(0,44)	(4,2)	(8,1)	(1,0)	(1,0)	(1,0)	(1,0)	(1,0)	(1,0)	(1,0)	(1,0)	(1,0)	(1,0)	
L1D -462>	(69,1)	(218,1)	(187,1)	(89,1)	(0,4)	(1,1)	(2,1)	(130,1)	(1,0)	(1,0)	(1,0)	(1,0)	(1,0)	(1,0)	(1,0)	(1,0)	
L1D -461>	(3,1)	(9,1)	(4,12)	(2,4)	(17,1)	(1,1)	(132,1)	(1,0)	(1,0)	(1,0)	(1,0)	(1,0)	(1,0)	(1,0)	(1,0)	(1,0)	
L1D -460>	(0,3)	(1,1)	(125,3)	(128,2)	(34,1)	(382,1)	(1,0)	(1,0)	(1,0)	(1,0)	(1,0)	(1,0)	(1,0)	(1,0)	(1,0)	(1,0)	
L1D -459>	(0,2)	(124,3)	(146,1)	(-9,1)	(4,1)	(9,1)	(1,1)	(1,0)	(1,0)	(1,0)	(1,0)	(1,0)	(1,0)	(1,0)	(1,0)	(1,0)	
L1D -458>	(456,2)	(91,1)	(128,3)	(123,1)	(0,3)	(48,1)	(-6,1)	(1,0)	(1,0)	(1,0)	(1,0)	(1,0)	(1,0)	(1,0)	(1,0)	(1,0)	
L1D -457>	(127,5)	(51,1)	(276,1)	(122,1)	(0,1)	(1,0)	(1,0)	(1,0)	(1,0)	(1,0)	(1,0)	(1,0)	(1,0)	(1,0)	(1,0)	(1,0)	
L1D -456>	(219,2)	(1,2)	(0,2)	(66,1)	(126,3)	(89,1)	(-9,1)	(-1,2)	(376,1)	(1,0)	(1,0)	(1,0)	(1,0)	(1,0)	(1,0)	(1,0)	
L1D -455>	(68,12)	(54,1)	(0,1)	(-4,1)	(120,1)	(1,0)	(1,0)	(1,0)	(1,0)	(1,0)	(1,0)	(1,0)	(1,0)	(1,0)	(1,0)	(1,0)	
L1D -454>	(0,35)	(1,19)	(79,1)	(50,2)	(454,1)	(9,2)	(57,2)	(1,0)	(1,0)	(1,0)	(1,0)	(1,0)	(1,0)	(1,0)	(1,0)	(1,0)	
L1D -453>	(1,1)	(0,1)	(17,1)	(1,0)	(1,0)	(1,0)	(1,0)	(1,0)	(1,0)	(1,0)	(1,0)	(1,0)	(1,0)	(1,0)	(1,0)	(1,0)	
L1D -452>	(0,1)	(1,2)	(83,1)	(426,1)	(-1,1)	(124,1)	(1,0)	(1,0)	(1,0)	(1,0)	(1,0)	(1,0)	(1,0)	(1,0)	(1,0)	(1,0)	
L1D -451>	(0,92)	(244,1)	(221,1)	(2,2)	(-12,1)	(70,1)	(5,1)	(3,10)	(114,2)	(1,0)	(1,0)	(1,0)	(1,0)	(1,0)	(1,0)	(1,0)	
L1D -450>	(97,1)	(366,1)	(5,1)	(113,3)	(9,2)	(116,2)	(38,1)	(4,1)	(0,5)	(1,0)	(1,0)	(1,0)	(1,0)	(1,0)	(1,0)	(1,0)	
L1D -449>	(68,108)	(0,3)	(117,2)	(1,1)	(5,1)	(1,0)	(1,0)	(1,0)	(1,0)	(1,0)	(1,0)	(1,0)	(1,0)	(1,0)	(1,0)	(1,0)	
L1D -448>	(-1,1)	(0,122)	(-3,30)	(68,6)	(1,1)	(31,1)	(106,1)	(57,1)	(116,1)	(69,1)	(114,1)	(81,1)	(438,1)	(1,0)	(1,0)	(1,0)	
L1D -447>	(1,1)	(-45,39)	(115,3)	(0,1)	(112,1)	(71,1)	(1,0)	(1,0)	(1,0)	(1,0)	(1,0)	(1,0)	(1,0)	(1,0)	(1,0)	(1,0)	
L1D -446>	(114,21)	(77,3)	(0,2)	(9,1)	(278,1)	(-45,1)	(4,1)	(113,1)	(1,2)	(108,1)	(1,0)	(1,0)	(1,0)	(1,0)	(1,0)	(1,0)	
L1D -445>	(0,3)	(68,1)	(113,9)	(112,3)	(114,1)	(1,1)	(110,2)	(458,1)	(-45,1)	(23,1)	(2,1)	(-10,1)	(1,0)	(1,0)	(1,0)	(1,0)	
L1D -444>	(443,1)	(1,1)	(112,11)	(0,6)	(71,1)	(115,12)	(-45,23)	(69,2)	(272,1)	(1,0)	(1,0)	(1,0)	(1,0)	(1,0)	(1,0)	(1,0)	
L1D -443>	(226,1)	(111,13)	(396,1)	(0,6)	(114,21)	(5,1)	(337,1)	(110,3)	(442,1)	(103,1)	(211,1)	(1,1)	(340,1)	(215,1)	(1,0)	(1,0)	
L1D -442>	(437,2)	(443,8)	(442,73)	(215,6)	(212,1)	(108,4)	(110,6)	(218,3)	(441,18)	(439,28)	(220,3)	(419,2)	(0,10)	(422,1)	(216,1)	(438,5)	
L1D -441>	(212,18)	(0,3)	(104,29)	(-1,1)	(439,11)	(9,2)	(60,1)	(108,1)	(70,1)	(109,1)	(-10,1)	(1,0)	(1,0)	(1,0)	(1,0)	(1,0)	
L1D -440>	(95,1)	(141,1)	(-1,1)	(3,1)	(0,3)	(77,1)	(-2,1)	(108,1)	(63,1)	(2,1)	(1,3)	(1,0)	(1,0)	(1,0)	(1,0)	(1,0)	
L1D -439>	(1,1)	(0,6)	(132,1)	(-4,1)	(35,2)	(102,1)	(4,1)	(1,0)	(1,0)	(1,0)	(1,0)	(1,0)	(1,0)	(1,0)	(1,0)	(1,0)	
L1D -438>	(4,2)	(14,1)	(61,2)	(435,1)	(438,1)	(34,1)	(31,1)	(-8,1)	(1,0)	(1,0)	(1,0)	(1,0)	(1,0)	(1,0)	(1,0)	(1,0)	
L1D -437>	(0,7)	(146,5)	(5,1)	(2,23)	(394,1)	(419,5)	(1,7)	(-8,1)	(-2,6)	(266,1)	(9,3)	(29,2)	(1,0)	(1,0)	(1,0)	(1,0)	
L1D -436>	(0,7)	(146,1)	(-1,2)	(256,1)	(73,1)	(-9,1)	(436,1)	(9,5)	(44,1)	(138,1)	(63,3)	(175,1)	(33,1)	(264,1)	(107,1)	(69,1)	
L1D -435>	(-2,2)	(251,3)	(2,2)	(0,7)	(1,2)	(107,1)	(265,1)	(-4,1)	(9,2)	(419,1)	(283,7)	(137,3)	(291,1)	(286,1)	(-58,1)	(-6,1)	
L1D -434>	(298,5)	(434,11)	(-2,5)	(106,2)	(125,1)	(2,16)	(0,11)	(190,1)	(136,3)	(1,1)	(-1,3)	(154,2)	(396,1)	(419,4)	(398,1)	(9,1)	
L1D -433>	(5,2)	(0,1)	(16,1)	(364,1)	(328,1)	(1,0)	(1,0)	(1,0)	(1,0)	(1,0)	(1,0)	(1,0)	(1,0)	(1,0)	(1,0)	(1,0)	
L1D -432>	(3,2)	(10,1)	(9,2)	(91,1)	(0,4)	(1,1)	(61,1)	(52,1)	(-20,1)	(2,2)	(-10,1)	(26,1)	(1,0)	(1,0)	(1,0)	(1,0)	
L1D -431>	(17,1)	(0,2)	(1,1)	(47,1)	(1,0)	(1,0)	(1,0)	(1,0)	(1,0)	(1,0)	(1,0)	(1,0)	(1,0)	(1,0)	(1,0)	(1,0)	
L1D -430>	(0,3)	(418,1)	(-32,1)	(69,1)	(92,1)	(-2,1)	(286,1)	(32,1)	(1,0)	(1,0)	(1,0)	(1,0)	(1,0)	(1,0)	(1,0)	(1,0)	
L1D -429>	(-29,1)	(169,1)	(56,1)	(0,2)	(238,1)	(431,2)	(-16,1)	(29,1)	(411,1)	(1,0)	(1,0)	(1,0)	(1,0)	(1,0)	(1,0)	(1,0)	
L1D -428>	(2,77)	(0,9)	(-2,0)	(89,0)	(5,0)	(9,0)	(408,0)	(4,0)	(61,0)	(1,0)	(1,0)	(1,0)	(1,0)	(1,0)	(1,0)	(1,0)	
L1D -427>	(28,124)	(47,1)	(0,4)	(1,2)	(56,1)	(-5,1)	(382,1)	(5,1)	(1,0)	(1,0)	(1,0)	(1,0)	(1,0)	(1,0)	(1,0)	(1,0)	
L1D -426>	(1,46)	(27,56)	(57,1)	(4,8)	(-8,1)	(390,1)	(-1,1)	(0,9)	(69,1)	(17,1)	(5,1)	(40,4)	(3,1)	(54,1)	(-47,1)	(406,1)	
L1D -425>	(388,1)	(1,1)	(412,1)	(0,3)	(9,1)	(2,1)	(228,1)	(91,1)	(-2,1)	(5,1)	(1,0)	(1,0)	(1,0)	(1,0)	(1,0)	(1,0)	
L1D -424>	(406,1)	(34,1)	(424,2)	(0,3)	(53,1)	(428,1)	(412,2)	(20,1)	(253,1)	(1,0)	(1,0)	(1,0)	(1,0)	(1,0)	(1,0)	(1,0)	
L1D -423>	(1,1)	(0,5)	(406,1)	(-10,2)	(9,3)	(382,1)	(32,1)	(5,2)	(-2,1)	(1,0)	(1,0)	(1,0)	(1,0)	(1,0)	(1,0)	(1,0)	
L1D -422>	(2,59)	(34,2)	(0,2)	(37,1)	(28,1)	(421,1)	(1,1)	(4,5)	(410,2)	(418,1)	(1,0)	(1,0)	(1,0)	(1,0)	(1,0)	(1,0)	
L1D -421>	(1,2)	(422,2)	(251,1)	(-16,1)	(2,1)	(1,0)	(1,0)	(1,0)	(1,0)	(1,0)	(1,0)	(1,0)	(1,0)	(1,0)	(1,0)	(1,0)	
L1D -420>	(0,6)	(421,4)	(402,2)	(394,1)	(420,3)	(388,1)	(53,1)	(-4,1)	(383,1)	(248,1)	(1,0)	(1,0)	(1,0)	(1,0)	(1,0)	(1,0)	
L1D -419>	(1,3)	(4,1)	(11,1)	(0,2)	(9,2)	(419,5)	(2,1)	(26,1)	(56,1)	(420,2)	(1,0)	(1,0)	(1,0)	(1,0)	(1,0)	(1,0)	
L1D -418>	(45,1)	(0,2)	(418,9)	(376,1)	(306,1)	(46,1)	(1,3)	(5,1)	(392,1)	(419,3)	(3,1)	(326,1)	(160,1)	(1,0)	(1,0)	(1,0)	
L1D -417>	(-10,98)	(0,0)	(31,1)	(417,0)	(1,0)	(1,0)	(1,0)	(1,0)	(1,0)	(1,0)	(1,0)	(1,0)	(1,0)	(1,0)	(1,0)	(1,0)	
L1D -416>	(0,2)	(415,1)	(53,1)	(416,6)	(1,1)	(404,1)	(58,1)	(417,2)	(324,1)	(-46,1)	(1,0)	(1,0)	(1,0)	(1,0)	(1,0)	(1,0)	
L1D -415>	(1,3)	(0,6)	(36,1)	(415,5)	(362,1)	(38,1)	(445,1)	(-1,1)	(62,1)	(2,1)	(414,1)	(1,0)	(1,0)	(1,0)	(1,0)	(1,0)	
L1D -414>	(9,6)	(414,5)	(69,1)	(61,2)	(1,4)	(0,3)	(23,1)	(238,1)	(17,1)	(34,1)	(11,1)	(2,1)	(38,1)	(100,1)	(53,1)	(402,2)	
L1D -413>	(1,7)	(2,6)	(0,4)	(413,5)	(-7,1)	(412,1)	(-1,1)	(153,1)	(414,1)	(11,3)	(5,1)	(1,0)	(1,0)	(1,0)	(1,0)	(1,0)	
L1D -412>	(87,1)	(0,10)	(310,1)	(412,10)	(-1,1)	(4,1)	(413,2)	(200,1)	(183,1)	(84,1)	(1,1)	(146,1)	(394,4)	(409,1)	(81,1)	(5,1)	
L1D -411>	(0,115)	(160,1)	(-7,11)	(408,0)	(1,0)	(1,0)	(1,0)	(1,0)	(1,0)	(1,0)	(1,0)	(1,0)	(1,0)	(1,0)	(1,0)	(1,0)	
L1D -410>	(-1,1)	(53,1)	(410,9)	(0,8)	(9,2)	(1,2)	(146,1)	(5,1)	(429,1)	(382,1)	(409,1)	(420,1)	(103,1)	(3,1)	(2,1)	(256,1)	
L1D -409>	(0,8)	(410,1)	(7,1)	(15,1)	(409,4)	(-1,1)	(1,2)	(405,1)	(1,0)	(1,0)	(1,0)	(1,0)	(1,0)	(1,0)	(1,0)	(1,0)	
L1D -408>	(259,1)	(9,1)	(390,2)	(409,4)	(0,9)	(366,1)	(-49,1)	(1,2)	(344,1)	(37,1)	(38,1)	(-1,2)	(411,1)	(295,1)	(33,1)	(1,0)	
L1D -407>	(1,4)	(0,4)	(56,2)	(9,2)	(407,6)	(388,1)	(454,1)	(-7,1)	(-30,1)	(198,1)	(220,1)	(2,1)	(82,1)	(-13,1)	(130,1)	(1,0)	
L1D -406>	(-1,1)	(124,1)	(394,9)	(1,5)	(0,8)	(397,1)	(406,5)	(407,1)	(10,1)	(268,1)	(420,1)	(1,0)	(1,0)	(1,0)	(1,0)	(1,0)	
L1D -405>	(1,4)	(0,19)	(133,3)	(9,5)	(385,1)	(2,2)	(405,7)	(106,3)	(406,2)	(17,1)	(5,1)	(-30,1)	(141,1)	(1,0)	(1,0)	(1,0)	
L1D -404>	(-1,14)	(405,3)	(-28,1)	(8,1)	(392,4)	(5,1)	(0,8)	(9,1)	(382,1)	(-10,1)	(2,2)	(1,1)	(404,1)	(1,0)	(1,0)	(1,0)	
L1D -403>	(1,2)	(-1,1)	(403,9)	(0,6)	(232,7)	(123,1)	(105,7)	(97,1)	(104,1)	(15,2)	(159,1)	(27,1)	(382,1)	(368,1)	(75,1)	(61,1)	
L1D -402>	(0,6)	(238,1)	(-70,1)	(68,1)	(4,2)	(-56,1)	(402,4)	(-2,1)	(1,4)	(396,1)	(-1,2)	(390,2)	(388,1)	(6,1)	(2,1)	(1,0)	
L1D -401>	(1,3)	(0,3)	(9,1)	(-10,3)	(11,1)	(2,2)	(401,4)	(-1,3)	(56,1)	(1,0)	(1,0)	(1,0)	(1,0)	(1,0)	(1,0)	(1,0)	
L1D -400>	(0,12)	(16,1)	(-1,1)	(400,5)	(283,2)	(401,4)	(374,1)	(3,2)	(-42,2)	(131,1)	(406,1)	(-86,1)	(260,1)	(399,1)	(367,1)	(1,2)	
L1D -399>	(1,2)	(9,2)	(5,2)	(399,3)	(434,1)	(0,4)	(400,1)	(17,1)	(-27,30)	(16,1)	(396,1)	(385,1)	(-1,1)	(1,0)	(1,0)	(1,0)	
L1D -398>	(9,2)	(88,1)	(-95,1)	(502,1)	(-44,4)	(0,16)	(398,13)	(1,3)	(386,1)	(406,1)	(32,1)	(17,1)	(85,1)	(84,1)	(-36,1)	(388,1)	
L1D -397>	(398,2)	(1,2)	(0,2)	(397,3)	(2,1)	(26,1)	(-43,1)	(1,0)	(1,0)	(1,0)	(1,0)	(1,0)	(1,0)	(1,0)	(1,0)	(1,0)	
L1D -396>	(1,4)	(0,7)	(28,1)	(9,2)	(396,9)	(397,2)	(-14,1)	(-58,1)	(-1,1)	(-65,1)	(5,1)	(260,1)	(424,1)	(1,0)	(1,0)	(1,0)	
L1D -395>	(1,1)	(83,1)	(395,4)	(2,1)	(0,2)	(17,1)	(27,1)	(187,1)	(191,1)	(5,1)	(256,1)	(-1,1)	(-61,1)	(1,0)	(1,0)	(1,0)	
L1D -394>	(37,1)	(376,3)	(0,7)	(71,1)	(-1,2)	(408,1)	(3,1)	(1,3)	(413,1)	(394,2)	(-78,1)	(1,0)	(1,0)	(1,0)	(1,0)	(1,0)	
L1D -393>	(1,1)	(393,4)	(2,4)	(0,2)	(359,1)	(-32,1)	(5,1)	(-16,1)	(187,1)	(253,1)	(1,0)	(1,0)	(1,0)	(1,0)	(1,0)	(1,0)	
L1D -392>	(393,4)	(392,3)	(0,1)	(9,2)	(422,1)	(184,1)	(-66,1)	(160,1)	(1,4)	(46,1)	(-78,1)	(5,2)	(391,1)	(252,1)	(328,1)	(380,1)	
L1D -391>	(1,1)	(29,1)	(3,1)	(391,2)	(-60,2)	(206,1)	(392,1)	(1,0)	(1,0)	(1,0)	(1,0)	(1,0)	(1,0)	(1,0)	(1,0)	(1,0)	
L1D -390>	(-2,1)	(389,3)	(0,17)	(24,1)	(391,1)	(390,6)	(9,1)	(392,1)	(-52,1)	(1,1)	(258,1)	(-1,1)	(-10,2)	(324,1)	(1,0)	(1,0)	
L1D -389>	(0,4)	(-4,1)	(9,1)	(1,3)	(390,2)	(414,1)	(-69,1)	(-53,1)	(-1,1)	(241,1)	(1,0)	(1,0)	(1,0)	(1,0)	(1,0)	(1,0)	
L1D -388>	(0,4)	(126,1)	(380,1)	(5,1)	(388,1)	(389,4)	(376,1)	(352,1)	(1,2)	(3,1)	(236,1)	(1,0)	(1,0)	(1,0)	(1,0)	(1,0)	
L1D -387>	(1,3)	(2,1)	(114,19)	(9,3)	(388,1)	(387,2)	(0,6)	(152,1)	(-10,1)	(-16,1)	(56,2)	(-41,1)	(386,1)	(414,1)	(1,0)	(1,0)	
L1D -386>	(386,80)	(0,13)	(-31,4)	(387,0)	(-1,0)	(1,0)	(1,0)	(1,0)	(1,0)	(1,0)	(1,0)	(1,0)	(1,0)	(1,0)	(1,0)	(1,0)	
L1D -385>	(-6,1)	(386,1)	(385,2)	(150,1)	(0,3)	(-31,1)	(1,8)	(2,1)	(1,0)	(1,0)	(1,0)	(1,0)	(1,0)	(1,0)	(1,0)	(1,0)	
L1D -384>	(1,2)	(372,2)	(406,1)	(403,2)	(68,1)	(358,1)	(26,1)	(385,2)	(410,1)	(1,0)	(1,0)	(1,0)	(1,0)	(1,0)	(1,0)	(1,0)	
L1D -383>	(0,4)	(90,2)	(9,3)	(383,3)	(382,1)	(-1,1)	(1,1)	(1,0)	(1,0)	(1,0)	(1,0)	(1,0)	(1,0)	(1,0)	(1,0)	(1,0)	
L1D -382>	(394,1)	(388,2)	(0,3)	(382,3)	(26,1)	(146,1)	(1,1)	(-1,1)	(2,1)	(-6,1)	(-94,1)	(1,0)	(1,0)	(1,0)	(1,0)	(1,0)	
L1D -381>	(0,4)	(114,112)	(152,7)	(9,2)	(-4,1)	(3,1)	(126,1)	(-66,1)	(82,2)	(29,1)	(44,1)	(-1,1)	(381,2)	(85,1)	(2,2)	(414,1)	
L1D -380>	(380,4)	(-1,1)	(381,2)	(0,3)	(6,2)	(-38,1)	(1,3)	(-32,1)	(342,1)	(24,1)	(218,1)	(1,0)	(1,0)	(1,0)	(1,0)	(1,0)	
L1D -379>	(379,1)	(0,3)	(-5,1)	(267,1)	(1,2)	(186,1)	(-21,1)	(2,1)	(-14,1)	(15,1)	(1,0)	(1,0)	(1,0)	(1,0)	(1,0)	(1,0)	
L1D -378>	(3,2)	(9,9)	(-1,1)	(0,4)	(160,1)	(-98,1)	(2,1)	(378,2)	(10,1)	(128,1)	(1,1)	(1,0)	(1,0)	(1,0)	(1,0)	(1,0)	
L1D -377>	(1,2)	(0,3)	(366,1)	(344,1)	(110,4)	(3,1)	(377,4)	(-7,1)	(14,1)	(-9,1)	(1,0)	(1,0)	(1,0)	(1,0)	(1,0)	(1,0)	
L1D -376>	(0,6)	(376,1)	(377,3)	(1,2)	(364,1)	(382,1)	(-64,1)	(1,0)	(1,0)	(1,0)	(1,0)	(1,0)	(1,0)	(1,0)	(1,0)	(1,0)	
L1D -375>	(2,1)	(1,2)	(338,1)	(87,1)	(295,1)	(0,4)	(124,1)	(375,1)	(448,1)	(45,1)	(1,0)	(1,0)	(1,0)	(1,0)	(1,0)	(1,0)	
L1D -374>	(6,2)	(1,4)	(9,3)	(0,5)	(18,1)	(30,1)	(50,2)	(2,1)	(222,1)	(374,1)	(-64,1)	(1,0)	(1,0)	(1,0)	(1,0)	(1,0)	
L1D -373>	(1,5)	(0,5)	(3,1)	(102,1)	(373,2)	(6,1)	(2,1)	(4,1)	(5,1)	(1,0)	(1,0)	(1,0)	(1,0)	(1,0)	(1,0)	(1,0)	
L1D -372>	(3,1)	(0,5)	(2,3)	(-50,1)	(20,1)	(5,3)	(1,3)	(126,1)	(482,1)	(57,1)	(1,0)	(1,0)	(1,0)	(1,0)	(1,0)	(1,0)	
L1D -371>	(72,10)	(1,5)	(371,5)	(-1,1)	(0,6)	(3,1)	(9,1)	(127,1)	(291,1)	(60,1)	(32,1)	(195,1)	(56,1)	(416,1)	(1,0)	(1,0)	
L1D -370>	(6,1)	(125,1)	(370,4)	(1,3)	(0,2)	(8,1)	(192,1)	(34,1)	(2,1)	(1,0)	(1,0)	(1,0)	(1,0)	(1,0)	(1,0)	(1,0)	
L1D -369>	(39,1)	(4,2)	(2,3)	(0,1)	(9,4)	(27,1)	(-7,1)	(369,1)	(412,1)	(-1,1)	(1,0)	(1,0)	(1,0)	(1,0)	(1,0)	(1,0)	
L1D -368>	(0,5)	(368,3)	(-1,1)	(1,2)	(98,1)	(5,1)	(1,0)	(1,0)	(1,0)	(1,0)	(1,0)	(1,0)	(1,0)	(1,0)	(1,0)	(1,0)	
L1D -367>	(0,3)	(6,1)	(-3,1)	(24,1)	(62,1)	(1,2)	(-7,1)	(17,2)	(196,1)	(2,3)	(368,1)	(1,0)	(1,0)	(1,0)	(1,0)	(1,0)	
L1D -366>	(6,1)	(385,1)	(0,4)	(-18,1)	(320,1)	(1,1)	(4,1)	(370,1)	(108,1)	(418,1)	(1,0)	(1,0)	(1,0)	(1,0)	(1,0)	(1,0)	
L1D -365>	(60,14)	(9,6)	(0,5)	(72,5)	(-1,2)	(366,2)	(1,1)	(365,3)	(-80,1)	(-9,1)	(2,1)	(398,1)	(1,0)	(1,0)	(1,0)	(1,0)	
L1D -364>	(364,4)	(0,3)	(2,1)	(50,1)	(276,1)	(1,3)	(78,1)	(1,0)	(1,0)	(1,0)	(1,0)	(1,0)	(1,0)	(1,0)	(1,0)	(1,0)	
L1D -363>	(1,5)	(-4,1)	(18,1)	(3,1)	(9,2)	(-7,1)	(-2,15)	(72,15)	(80,1)	(8,1)	(0,4)	(104,1)	(364,1)	(107,1)	(378,1)	(363,1)	
L1D -362>	(-1,1)	(1,3)	(0,6)	(85,1)	(230,1)	(72,3)	(-2,1)	(400,1)	(362,6)	(78,2)	(-9,1)	(1,0)	(1,0)	(1,0)	(1,0)	(1,0)	
L1D -361>	(1,4)	(362,2)	(0,3)	(361,1)	(107,1)	(91,1)	(5,1)	(62,2)	(395,1)	(2,1)	(82,1)	(59,1)	(1,0)	(1,0)	(1,0)	(1,0)	
L1D -360>	(0,4)	(354,1)	(88,1)	(1,6)	(-2,9)	(9,3)	(3,2)	(363,1)	(-1,2)	(4,1)	(130,1)	(1,0)	(1,0)	(1,0)	(1,0)	(1,0)	
L1D -359>	(60,78)	(1,10)	(0,4)	(6,1)	(-1,0)	(359,0)	(-3,0)	(1,0)	(1,0)	(1,0)	(1,0)	(1,0)	(1,0)	(1,0)	(1,0)	(1,0)	
L1D -358>	(220,2)	(358,3)	(1,5)	(234,1)	(60,4)	(176,1)	(0,3)	(6,1)	(24,1)	(-8,1)	(1,0)	(1,0)	(1,0)	(1,0)	(1,0)	(1,0)	
L1D -357>	(220,3)	(-2,10)	(-26,1)	(-27,1)	(357,1)	(1,2)	(6,1)	(-8,1)	(0,4)	(-47,1)	(5,3)	(235,1)	(249,1)	(168,1)	(352,1)	(1,0)	
L1D -356>	(218,3)	(9,3)	(1,3)	(357,1)	(192,1)	(220,3)	(24,2)	(-18,1)	(0,3)	(50,1)	(344,1)	(-98,1)	(1,0)	(1,0)	(1,0)	(1,0)	
L1D -355>	(1,4)	(56,3)	(110,2)	(123,2)	(232,1)	(359,1)	(355,3)	(356,1)	(2,2)	(0,4)	(353,1)	(217,2)	(-1,1)	(41,1)	(-14,1)	(1,0)	
L1D -354>	(216,1)	(1,13)	(220,3)	(-1,1)	(354,5)	(9,3)	(95,1)	(69,1)	(0,7)	(352,1)	(217,1)	(5,1)	(278,1)	(3,1)	(8,1)	(302,1)	
L1D -353>	(-7,1)	(121,1)	(1,5)	(354,2)	(24,1)	(331,1)	(0,4)	(-16,1)	(64,1)	(123,1)	(122,1)	(9,1)	(107,1)	(217,1)	(274,1)	(6,2)	
L1D -352>	(162,1)	(91,1)	(123,2)	(-2,38)	(110,2)	(353,2)	(1,3)	(4,1)	(-1,5)	(120,1)	(6,2)	(0,3)	(218,1)	(-56,1)	(340,1)	(352,1)	
L1D -351>	(9,4)	(0,4)	(1,4)	(217,2)	(2,1)	(120,1)	(352,3)	(335,1)	(332,1)	(3,2)	(18,1)	(351,3)	(87,1)	(119,1)	(20,2)	(69,1)	
L1D -350>	(110,2)	(118,2)	(350,2)	(2,1)	(44,2)	(343,1)	(119,1)	(0,4)	(89,1)	(349,1)	(218,1)	(1,1)	(420,1)	(-3,1)	(18,1)	(1,0)	
L1D -349>	(347,1)	(24,1)	(0,4)	(81,1)	(328,3)	(325,1)	(-108,1)	(119,1)	(333,1)	(350,1)	(349,1)	(89,2)	(196,1)	(-76,1)	(-37,1)	(56,1)	
L1D -348>	(118,2)	(0,8)	(114,1)	(-64,1)	(349,1)	(338,1)	(351,3)	(2,1)	(111,1)	(348,2)	(26,2)	(5,1)	(6,1)	(136,1)	(-74,1)	(1,2)	
L1D -347>	(63,1)	(123,1)	(219,1)	(113,1)	(1,1)	(5,1)	(109,1)	(-65,1)	(9,4)	(347,4)	(0,6)	(84,2)	(341,1)	(349,1)	(346,1)	(325,1)	
L1D -346>	(341,21)	(4,103)	(0,13)	(298,0)	(347,0)	(345,0)	(1,0)	(1,0)	(1,0)	(1,0)	(1,0)	(1,0)	(1,0)	(1,0)	(1,0)	(1,0)	
L1D -345>	(2,3)	(1,2)	(14,1)	(0,5)	(4,1)	(345,3)	(123,1)	(-129,1)	(120,1)	(325,1)	(322,1)	(328,1)	(222,1)	(24,1)	(47,1)	(23,3)	
L1D -344>	(0,8)	(113,2)	(35,2)	(348,1)	(344,3)	(1,2)	(347,1)	(171,1)	(4,1)	(145,1)	(442,1)	(34,1)	(290,1)	(17,2)	(-2,2)	(342,1)	
L1D -343>	(1,1)	(338,100)	(-3,47)	(-32,1)	(6,1)	(219,0)	(124,0)	(343,2)	(0,3)	(252,0)	(1,0)	(1,0)	(1,0)	(1,0)	(1,0)	(1,0)	
L1D -342>	(-4,27)	(20,1)	(1,7)	(-112,1)	(-1,1)	(114,2)	(0,5)	(332,1)	(337,24)	(324,1)	(342,5)	(9,2)	(343,1)	(326,1)	(-20,1)	(117,1)	
L1D -341>	(0,54)	(341,22)	(5,56)	(124,0)	(219,1)	(4,76)	(346,1)	(109,0)	(348,0)	(1,0)	(1,0)	(1,0)	(1,0)	(1,0)	(1,0)	(1,0)	
L1D -340>	(1,4)	(123,4)	(0,18)	(219,53)	(256,2)	(110,22)	(108,6)	(111,16)	(4,4)	(209,17)	(3,3)	(118,13)	(122,5)	(218,6)	(-132,1)	(81,1)	
L1D -339>	(114,2)	(-13,1)	(115,3)	(218,5)	(1,5)	(0,5)	(99,1)	(3,1)	(342,1)	(4,2)	(336,1)	(208,1)	(-20,1)	(8,1)	(345,1)	(96,1)	
L1D -338>	(1,14)	(120,1)	(110,2)	(-3,66)	(338,3)	(108,1)	(219,18)	(0,3)	(9,2)	(106,0)	(343,12)	(32,0)	(339,1)	(122,0)	(52,0)	(111,4)	
L1D -337>	(342,82)	(104,4)	(117,111)	(-4,30)	(167,12)	(113,11)	(114,93)	(115,2)	(209,2)	(111,6)	(110,15)	(200,3)	(220,1)	(108,5)	(122,1)	(219,3)	
L1D -336>	(341,7)	(108,5)	(342,3)	(107,1)	(4,3)	(333,1)	(110,58)	(220,3)	(37,1)	(337,2)	(38,2)	(336,1)	(0,8)	(50,2)	(1,5)	(344,1)	
L1D -335>	(122,4)	(120,6)	(123,5)	(220,15)	(108,70)	(109,5)	(111,34)	(219,10)	(104,1)	(209,1)	(213,0)	(115,4)	(119,0)	(349,0)	(112,13)	(197,2)	
L1D -334>	(219,18)	(104,5)	(218,8)	(118,6)	(112,5)	(198,4)	(108,49)	(107,45)	(110,89)	(117,15)	(217,4)	(123,7)	(105,11)	(220,18)	(211,3)	(111,20)	
L1D -333>	(123,3)	(0,10)	(-1,3)	(124,50)	(105,3)	(113,4)	(110,3)	(336,2)	(219,1)	(331,1)	(112,1)	(108,14)	(-36,1)	(1,5)	(9,9)	(24,1)	
L1D -332>	(121,17)	(0,9)	(335,31)	(106,2)	(329,44)	(3,44)	(1,44)	(109,16)	(105,44)	(-2,33)	(114,14)	(110,25)	(-3,17)	(111,77)	(108,55)	(196,9)	
L1D -331>	(0,44)	(113,52)	(114,29)	(334,115)	(107,60)	(328,112)	(332,1)	(329,13)	(123,12)	(-3,56)	(110,106)	(337,17)	(3,125)	(111,70)	(105,28)	(108,15)	
L1D -330>	(4,4)	(108,3)	(-127,2)	(0,8)	(110,3)	(192,3)	(1,5)	(113,3)	(-2,5)	(90,4)	(-33,1)	(330,7)	(116,2)	(111,5)	(120,10)	(107,1)	
L1D -329>	(221,11)	(117,42)	(-115,3)	(108,15)	(111,87)	(191,14)	(328,4)	(110,61)	(195,1)	(121,6)	(0,4)	(329,23)	(-114,5)	(192,18)	(105,5)	(113,7)	
L1D -328>	(15,69)	(110,6)	(30,0)	(22,54)	(114,0)	(116,0)	(328,2)	(120,3)	(-16,0)	(0,1)	(117,0)	(4,1)	(108,2)	(54,0)	(102,0)	(-111,0)	
L1D -327>	(117,3)	(210,2)	(107,2)	(6,1)	(0,6)	(191,5)	(106,1)	(222,1)	(-5,3)	(327,3)	(111,1)	(-8,3)	(9,1)	(454,1)	(56,1)	(192,1)	
L1D -326>	(192,1)	(110,50)	(326,9)	(118,2)	(111,76)	(105,2)	(107,28)	(191,4)	(114,1)	(221,8)	(329,2)	(0,6)	(113,18)	(117,13)	(108,10)	(1,2)	
L1D -325>	(194,2)	(0,17)	(221,33)	(104,41)	(357,1)	(328,1)	(332,1)	(110,41)	(107,25)	(111,21)	(-6,1)	(1,1)	(86,1)	(220,2)	(6,2)	(325,1)	
L1D -324>	(323,2)	(0,10)	(322,1)	(1,3)	(9,10)	(324,1)	(-8,3)	(-46,1)	(110,2)	(116,1)	(-7,3)	(111,4)	(-10,1)	(-146,1)	(6,2)	(320,1)	
L1D -323>	(0,12)	(6,2)	(111,5)	(110,14)	(-9,1)	(-1,17)	(2,44)	(323,5)	(214,53)	(113,8)	(1,2)	(107,1)	(192,1)	(29,1)	(243,1)	(4,2)	
L1D -322>	(1,2)	(-4,6)	(0,10)	(191,4)	(-10,2)	(86,1)	(322,2)	(107,5)	(34,1)	(24,1)	(-36,1)	(319,1)	(-2,1)	(221,3)	(240,1)	(110,2)	
L1D -321>	(1,4)	(111,5)	(0,11)	(317,1)	(336,1)	(319,1)	(331,2)	(214,103)	(315,1)	(108,1)	(-3,9)	(49,2)	(183,1)	(-1,1)	(24,2)	(-2,1)	
L1D -320>	(4,2)	(320,4)	(32,1)	(1,2)	(191,2)	(0,17)	(192,5)	(24,1)	(45,2)	(-10,1)	(323,1)	(-1,1)	(20,1)	(9,3)	(117,1)	(112,1)	
L1D -319>	(191,4)	(-2,4)	(339,2)	(0,7)	(20,3)	(337,1)	(-1,1)	(18,3)	(319,2)	(340,1)	(-15,1)	(255,1)	(56,1)	(4,2)	(312,1)	(338,1)	
L1D -318>	(-2,2)	(323,1)	(9,4)	(0,22)	(79,1)	(321,1)	(318,6)	(5,2)	(52,1)	(3,1)	(62,3)	(4,3)	(1,2)	(110,3)	(315,1)	(331,1)	
L1D -317>	(2,1)	(110,3)	(23,2)	(5,1)	(108,1)	(0,22)	(24,1)	(315,2)	(9,3)	(330,1)	(1,1)	(6,2)	(316,1)	(317,1)	(354,1)	(318,1)	
L1D -316>	(2,63)	(-4,0)	(193,0)	(0,4)	(1,71)	(5,0)	(3,1)	(348,0)	(19,0)	(-16,1)	(314,0)	(-44,0)	(317,1)	(4,0)	(103,0)	(473,0)	
L1D -315>	(9,5)	(1,2)	(6,2)	(4,2)	(108,3)	(0,10)	(-5,9)	(-2,6)	(-17,3)	(192,5)	(26,1)	(112,1)	(68,1)	(315,3)	(2,5)	(104,1)	
L1D -314>	(191,2)	(5,13)	(1,6)	(46,1)	(0,13)	(-6,2)	(-1,1)	(182,1)	(-128,3)	(61,2)	(325,1)	(-3,1)	(313,1)	(-84,2)	(331,1)	(20,1)	
L1D -313>	(2,15)	(0,103)	(313,23)	(-13,0)	(-2,13)	(316,1)	(110,1)	(-1,0)	(315,7)	(192,0)	(328,0)	(24,0)	(-4,1)	(106,0)	(41,1)	(-20,0)	
L1D -312>	(0,7)	(264,1)	(197,1)	(108,15)	(19,1)	(191,4)	(315,1)	(1,3)	(4,5)	(61,1)	(-93,1)	(-4,1)	(18,1)	(35,1)	(-61,1)	(111,1)	
L1D -311>	(314,2)	(108,2)	(-92,1)	(332,1)	(0,7)	(-1,1)	(335,3)	(24,2)	(321,1)	(9,2)	(18,1)	(-14,1)	(311,2)	(-21,2)	(192,1)	(1,2)	
L1D -310>	(304,10)	(111,2)	(313,2)	(4,2)	(3,3)	(2,1)	(1,6)	(139,1)	(0,3)	(6,1)	(-20,1)	(12,1)	(107,1)	(309,2)	(324,1)	(110,2)	
L1D -309>	(6,5)	(45,2)	(111,2)	(1,2)	(3,3)	(0,26)	(24,2)	(-94,3)	(19,1)	(309,8)	(9,3)	(191,2)	(138,2)	(29,2)	(245,1)	(-125,2)	
L1D -308>	(2,4)	(0,83)	(-1,0)	(-12,0)	(-8,0)	(1,0)	(248,0)	(308,0)	(324,1)	(315,0)	(330,0)	(309,0)	(192,0)	(20,0)	(279,0)	(1,0)	
L1D -307>	(0,4)	(307,2)	(120,1)	(1,1)	(-128,1)	(-21,1)	(129,1)	(242,1)	(192,4)	(8,1)	(311,1)	(137,1)	(191,6)	(-5,1)	(-2,1)	(51,1)	
L1D -306>	(0,85)	(16,22)	(-4,0)	(306,11)	(9,0)	(411,0)	(29,0)	(1,0)	(1,0)	(1,0)	(1,0)	(1,0)	(1,0)	(1,0)	(1,0)	(1,0)	
L1D -305>	(6,4)	(311,2)	(0,14)	(439,1)	(1,6)	(-61,1)	(321,5)	(24,5)	(26,1)	(43,3)	(305,2)	(308,1)	(303,1)	(-128,1)	(61,2)	(63,1)	
L1D -304>	(-21,1)	(111,1)	(110,1)	(0,17)	(14,1)	(1,3)	(20,5)	(302,1)	(4,3)	(304,7)	(439,1)	(-16,1)	(-4,1)	(58,1)	(144,1)	(-14,1)	
L1D -303>	(-20,3)	(0,13)	(3,2)	(24,2)	(47,1)	(33,2)	(-27,4)	(-81,1)	(-128,1)	(-1,2)	(62,1)	(234,1)	(141,2)	(114,1)	(6,2)	(1,1)	
L1D -302>	(1,4)	(0,15)	(300,2)	(-6,1)	(-103,1)	(50,1)	(4,1)	(305,1)	(-100,1)	(9,4)	(-2,1)	(354,1)	(19,1)	(146,2)	(-101,1)	(-7,2)	
L1D -301>	(2,2)	(6,6)	(0,10)	(-4,10)	(276,1)	(294,1)	(-5,1)	(-16,1)	(296,1)	(5,1)	(-13,1)	(301,2)	(69,1)	(1,4)	(3,1)	(-128,1)	
L1D -300>	(386,1)	(303,1)	(2,56)	(100,1)	(-38,1)	(1,2)	(124,1)	(0,12)	(9,5)	(146,1)	(63,1)	(62,1)	(48,1)	(305,2)	(6,4)	(300,1)	
L1D -299>	(1,3)	(321,71)	(9,3)	(299,8)	(-2,2)	(2,2)	(14,4)	(283,4)	(-140,1)	(-108,5)	(-172,1)	(-106,3)	(0,12)	(150,3)	(171,1)	(6,2)	
L1D -298>	(2,110)	(106,1)	(-105,1)	(0,13)	(296,1)	(299,1)	(-139,1)	(378,0)	(19,0)	(127,1)	(290,0)	(31,0)	(125,0)	(1,0)	(1,0)	(1,0)	
L1D -297>	(26,7)	(9,12)	(-20,2)	(0,12)	(104,1)	(24,7)	(297,1)	(299,1)	(6,5)	(225,1)	(10,1)	(2,1)	(296,1)	(49,1)	(260,1)	(81,1)	
L1D -296>	(0,30)	(32,3)	(297,1)	(146,1)	(296,11)	(1,4)	(24,1)	(-138,4)	(152,2)	(4,2)	(299,1)	(-12,2)	(19,4)	(6,1)	(-9,1)	(-13,2)	
L1D -295>	(0,9)	(1,4)	(6,11)	(77,1)	(19,3)	(180,1)	(299,1)	(18,1)	(47,1)	(297,2)	(272,1)	(317,2)	(138,1)	(-136,1)	(167,1)	(24,1)	
L1D -294>	(1,3)	(297,3)	(83,1)	(20,1)	(14,12)	(442,1)	(0,11)	(390,1)	(294,5)	(26,2)	(199,1)	(4,1)	(-2,1)	(2,2)	(299,2)	(-1,2)	
L1D -293>	(6,7)	(0,20)	(-20,4)	(24,8)	(26,2)	(1,6)	(-1,6)	(-2,1)	(9,5)	(74,1)	(293,2)	(147,1)	(297,1)	(17,1)	(-6,1)	(115,1)	
L1D -292>	(0,24)	(4,2)	(-1,4)	(6,6)	(19,7)	(20,3)	(293,3)	(1,3)	(146,4)	(295,3)	(297,1)	(-106,1)	(2,2)	(238,1)	(254,1)	(5,1)	
L1D -291>	(9,4)	(20,1)	(264,1)	(1,3)	(126,1)	(210,1)	(0,13)	(-20,2)	(295,3)	(293,3)	(6,2)	(270,1)	(291,2)	(2,1)	(32,1)	(276,1)	
L1D -290>	(2,7)	(6,2)	(1,4)	(4,1)	(0,15)	(11,107)	(295,2)	(-2,1)	(47,2)	(130,4)	(5,1)	(293,1)	(309,1)	(20,3)	(-7,1)	(19,4)	
L1D -289>	(2,1)	(6,4)	(27,1)	(1,2)	(24,3)	(289,2)	(16,1)	(0,8)	(-1,1)	(248,1)	(41,1)	(1,0)	(1,0)	(1,0)	(1,0)	(1,0)	
L1D -288>	(2,3)	(120,1)	(20,2)	(1,7)	(6,3)	(418,1)	(9,12)	(291,1)	(0,15)	(-2,1)	(68,1)	(-20,2)	(184,1)	(306,1)	(5,1)	(14,1)	
L1D -287>	(16,12)	(286,1)	(127,1)	(0,24)	(283,1)	(24,4)	(287,1)	(2,3)	(18,1)	(-14,1)	(6,4)	(126,1)	(422,1)	(26,2)	(262,1)	(408,1)	
L1D -286>	(-94,1)	(289,5)	(20,9)	(2,4)	(0,28)	(298,1)	(19,2)	(283,1)	(215,1)	(24,1)	(436,1)	(207,1)	(301,1)	(286,2)	(1,2)	(-20,1)	
L1D -285>	(-3,5)	(6,7)	(3,10)	(242,1)	(0,17)	(287,12)	(2,1)	(24,3)	(19,1)	(286,6)	(285,11)	(37,8)	(-2,1)	(1,4)	(204,1)	(28,1)	
L1D -284>	(28,2)	(314,1)	(128,1)	(-18,1)	(19,5)	(0,12)	(20,7)	(9,11)	(-160,1)	(1,47)	(-14,1)	(8,1)	(289,2)	(14,1)	(6,2)	(282,1)	
L1D -283>	(107,2)	(0,19)	(2,2)	(283,2)	(-3,56)	(12,2)	(-2,116)	(19,3)	(-8,2)	(285,3)	(-4,1)	(-1,4)	(-34,1)	(6,1)	(272,1)	(24,1)	
L1D -282>	(-1,3)	(271,3)	(290,4)	(14,2)	(-2,6)	(221,5)	(19,12)	(20,5)	(9,3)	(0,59)	(-8,1)	(145,1)	(1,6)	(5,1)	(128,1)	(283,1)	
L1D -281>	(1,3)	(4,1)	(6,6)	(220,5)	(221,20)	(0,14)	(281,1)	(9,2)	(271,2)	(24,7)	(19,1)	(26,1)	(-1,1)	(285,1)	(76,1)	(-20,2)	
L1D -280>	(0,20)	(220,15)	(278,1)	(-20,3)	(281,1)	(221,23)	(280,3)	(101,1)	(4,3)	(242,1)	(304,1)	(-34,1)	(283,3)	(62,1)	(8,1)	(272,2)	
L1D -279>	(-11,81)	(281,1)	(9,1)	(220,1)	(0,3)	(6,1)	(1,0)	(24,1)	(172,0)	(219,0)	(275,0)	(221,4)	(8,2)	(-3,0)	(283,1)	(19,0)	
L1D -278>	(16,1)	(281,4)	(221,25)	(220,12)	(272,2)	(2,4)	(20,8)	(219,6)	(268,6)	(19,16)	(218,5)	(-6,3)	(0,10)	(1,3)	(-2,3)	(283,3)	
L1D -277>	(0,117)	(277,4)	(273,48)	(220,1)	(240,1)	(248,0)	(219,0)	(221,1)	(28,0)	(24,0)	(1,0)	(1,0)	(1,0)	(1,0)	(1,0)	(1,0)	
L1D -276>	(2,9)	(219,12)	(220,14)	(274,4)	(0,16)	(6,6)	(20,13)	(4,3)	(14,2)	(276,4)	(279,8)	(19,15)	(266,3)	(-27,5)	(1,3)	(60,1)	
L1D -275>	(275,11)	(1,5)	(26,5)	(-20,2)	(0,29)	(8,6)	(24,2)	(218,5)	(219,12)	(6,5)	(9,7)	(19,2)	(278,2)	(264,2)	(272,2)	(265,5)	
L1D -274>	(218,2)	(220,7)	(-12,1)	(0,16)	(14,1)	(19,2)	(-1,1)	(8,21)	(20,2)	(279,4)	(-20,2)	(217,1)	(4,1)	(1,2)	(2,19)	(264,1)	
L1D -273>	(277,109)	(17,1)	(9,1)	(221,1)	(0,7)	(420,2)	(24,1)	(6,3)	(1,1)	(275,1)	(264,1)	(411,2)	(219,1)	(273,2)	(412,3)	(220,9)	
L1D -272>	(218,3)	(272,22)	(8,4)	(219,2)	(0,72)	(-12,2)	(216,5)	(221,18)	(50,2)	(220,7)	(275,1)	(270,7)	(44,1)	(4,3)	(-1,6)	(-133,4)	
L1D -271>	(282,31)	(-16,35)	(217,1)	(220,3)	(11,6)	(13,6)	(221,0)	(86,9)	(271,2)	(219,1)	(0,22)	(250,0)	(38,0)	(275,0)	(290,0)	(1,67)	
L1D -270>	(0,55)	(222,1)	(218,1)	(289,2)	(20,7)	(2,2)	(273,2)	(221,90)	(275,2)	(40,1)	(270,2)	(9,14)	(219,3)	(1,1)	(162,1)	(269,2)	
L1D -269>	(26,6)	(269,3)	(3,119)	(218,2)	(249,1)	(0,14)	(41,1)	(4,2)	(1,1)	(221,103)	(279,1)	(271,1)	(-20,2)	(268,8)	(220,38)	(13,12)	
L1D -268>	(236,1)	(5,1)	(221,78)	(-7,1)	(280,1)	(10,1)	(20,5)	(217,0)	(0,3)	(6,0)	(2,3)	(279,0)	(266,0)	(219,15)	(19,5)	(220,21)	
L1D -267>	(218,9)	(220,102)	(278,2)	(420,37)	(263,2)	(412,28)	(221,5)	(0,16)	(219,27)	(271,1)	(419,1)	(6,1)	(269,1)	(24,3)	(266,2)	(411,11)	
L1D -266>	(277,1)	(1,2)	(219,39)	(255,1)	(106,1)	(220,1)	(0,5)	(2,1)	(218,4)	(-20,3)	(221,76)	(442,1)	(256,1)	(268,1)	(4,3)	(19,7)	
L1D -265>	(0,37)	(217,4)	(24,2)	(262,1)	(218,56)	(9,1)	(1,2)	(-1,1)	(264,1)	(6,2)	(265,3)	(26,1)	(277,1)	(220,104)	(32,1)	(-20,1)	
L1D -264>	(-1,17)	(4,7)	(9,3)	(1,6)	(0,67)	(264,32)	(219,99)	(-8,7)	(2,4)	(247,1)	(-12,2)	(262,6)	(276,2)	(234,3)	(217,4)	(20,10)	
L1D -263>	(29,2)	(218,28)	(125,1)	(265,2)	(24,16)	(259,1)	(139,1)	(26,6)	(221,7)	(252,1)	(1,19)	(0,34)	(263,4)	(220,3)	(432,1)	(277,1)	
L1D -262>	(19,2)	(217,2)	(274,2)	(226,1)	(20,7)	(-20,1)	(-119,1)	(219,2)	(267,1)	(6,1)	(220,111)	(254,0)	(-12,0)	(261,0)	(322,0)	(0,3)	
L1D -261>	(24,6)	(220,5)	(-20,1)	(26,32)	(9,11)	(6,3)	(0,10)	(1,5)	(221,100)	(219,8)	(29,1)	(10,3)	(19,1)	(213,1)	(3,1)	(261,3)	
L1D -260>	(-11,9)	(3,26)	(2,62)	(0,7)	(220,124)	(20,3)	(398,1)	(10,37)	(75,2)	(1,4)	(218,2)	(221,6)	(39,4)	(219,5)	(27,27)	(6,2)	
L1D -259>	(167,18)	(220,55)	(13,2)	(219,77)	(3,6)	(195,6)	(-12,11)	(249,3)	(0,11)	(1,4)	(10,2)	(193,3)	(239,1)	(218,1)	(24,2)	(235,1)	
L1D -258>	(20,2)	(62,124)	(1,32)	(76,1)	(221,3)	(-13,81)	(6,1)	(0,3)	(146,0)	(-2,0)	(219,1)	(251,0)	(2,0)	(186,0)	(61,0)	(218,4)	
L1D -257>	(0,56)	(98,78)	(-1,4)	(61,12)	(99,6)	(65,1)	(1,1)	(60,93)	(-14,1)	(129,1)	(24,3)	(-3,4)	(217,0)	(-20,0)	(261,0)	(257,0)	
L1D -256>	(256,1)	(1,70)	(0,10)	(128,1)	(220,1)	(252,19)	(301,1)	(20,3)	(125,0)	(19,0)	(255,0)	(267,0)	(221,20)	(251,8)	(109,0)	(184,0)	
L1D -255>	(221,3)	(84,113)	(0,104)	(259,2)	(250,52)	(255,1)	(-20,1)	(126,1)	(26,5)	(-1,1)	(19,1)	(219,1)	(262,1)	(220,36)	(266,1)	(280,1)	
L1D -254>	(1,21)	(217,4)	(71,14)	(220,2)	(219,34)	(20,23)	(81,5)	(257,91)	(6,2)	(-20,3)	(97,7)	(2,8)	(250,1)	(0,7)	(-2,50)	(253,115)	
L1D -253>	(-20,7)	(208,2)	(253,20)	(257,9)	(6,3)	(218,12)	(0,19)	(1,2)	(219,5)	(17,2)	(15,1)	(221,8)	(256,1)	(7,1)	(252,10)	(-13,1)	
L1D -252>	(256,24)	(2,7)	(-20,11)	(128,11)	(9,20)	(20,4)	(-26,2)	(0,11)	(257,3)	(19,11)	(221,32)	(439,1)	(252,9)	(184,1)	(218,4)	(-3,9)	
L1D -251>	(-20,1)	(-4,1)	(3,2)	(220,12)	(-31,0)	(218,0)	(1,95)	(0,0)	(-36,0)	(7,0)	(212,0)	(38,0)	(4,0)	(246,0)	(1,0)	(1,0)	
L1D -250>	(219,19)	(84,87)	(-18,1)	(-7,11)	(218,5)	(250,8)	(4,4)	(221,8)	(257,3)	(2,14)	(19,4)	(0,14)	(239,2)	(-20,14)	(252,2)	(246,56)	
L1D -249>	(1,16)	(24,23)	(248,5)	(221,3)	(220,49)	(249,10)	(0,18)	(222,2)	(-36,15)	(-48,2)	(-27,3)	(240,1)	(102,2)	(19,5)	(-26,1)	(218,2)	
L1D -248>	(249,1)	(2,5)	(16,1)	(221,1)	(0,77)	(19,2)	(257,1)	(129,1)	(-8,1)	(219,3)	(282,1)	(20,6)	(120,0)	(220,101)	(-20,0)	(-37,1)	
L1D -247>	(26,15)	(245,22)	(226,3)	(247,27)	(311,1)	(-85,69)	(244,2)	(0,7)	(-215,1)	(1,7)	(8,1)	(219,1)	(-216,10)	(249,1)	(-218,2)	(-84,3)	
L1D -246>	(246,21)	(221,3)	(9,8)	(-89,36)	(20,9)	(2,6)	(-20,4)	(-86,2)	(19,40)	(1,11)	(243,1)	(-18,2)	(4,4)	(-83,26)	(244,3)	(0,24)	
L1D -245>	(250,83)	(-6,12)	(247,1)	(245,25)	(0,8)	(243,3)	(-87,52)	(2,1)	(13,18)	(8,2)	(258,1)	(24,2)	(221,1)	(-216,1)	(242,35)	(-90,2)	
L1D -244>	(0,25)	(218,5)	(-6,6)	(-91,2)	(242,20)	(1,9)	(-107,5)	(-20,5)	(-214,2)	(-18,2)	(220,13)	(221,7)	(14,1)	(13,11)	(-3,3)	(-71,1)	
L1D -243>	(2,80)	(-89,3)	(3,60)	(236,1)	(0,52)	(-84,8)	(245,7)	(240,3)	(1,6)	(219,2)	(13,8)	(246,4)	(24,4)	(241,5)	(220,1)	(-2,5)	
L1D -242>	(221,24)	(0,24)	(239,14)	(20,2)	(-218,1)	(236,1)	(2,4)	(-84,18)	(-20,2)	(244,2)	(1,123)	(-6,1)	(242,121)	(245,31)	(247,22)	(-90,13)	
L1D -241>	(221,18)	(1,14)	(217,6)	(2,3)	(-89,11)	(-107,8)	(0,42)	(24,23)	(241,22)	(26,63)	(240,21)	(235,22)	(220,4)	(232,3)	(21,1)	(-216,7)	
L1D -240>	(7,6)	(4,1)	(0,25)	(-110,8)	(241,25)	(103,9)	(220,5)	(221,110)	(216,2)	(219,19)	(1,11)	(234,2)	(2,6)	(-2,7)	(238,22)	(20,21)	
L1D -239>	(239,65)	(220,58)	(221,71)	(219,13)	(-110,4)	(-20,7)	(19,1)	(244,11)	(1,7)	(0,34)	(228,5)	(9,14)	(218,25)	(241,7)	(103,7)	(2,3)	
L1D -238>	(219,48)	(-107,53)	(-20,1)	(13,13)	(218,8)	(-98,2)	(217,10)	(19,2)	(1,26)	(0,27)	(237,26)	(12,30)	(-110,4)	(-92,6)	(238,5)	(-104,2)	
L1D -237>	(9,71)	(239,0)	(-9,0)	(240,0)	(0,0)	(219,0)	(236,0)	(218,0)	(5,0)	(237,0)	(221,0)	(1,0)	(1,0)	(1,0)	(1,0)	(1,0)	
L1D -236>	(9,40)	(229,1)	(221,40)	(2,1)	(3,122)	(5,1)	(0,6)	(220,2)	(-93,1)	(-20,1)	(1,3)	(233,1)	(-6,1)	(236,8)	(237,8)	(20,1)	
L1D -235>	(219,30)	(232,15)	(235,40)	(234,6)	(2,12)	(233,102)	(6,18)	(0,27)	(221,5)	(24,5)	(20,1)	(224,2)	(220,62)	(1,11)	(3,37)	(13,2)	
L1D -234>	(221,20)	(275,1)	(0,28)	(19,7)	(9,18)	(-100,86)	(103,8)	(1,13)	(218,34)	(219,43)	(-23,5)	(3,48)	(230,36)	(-18,5)	(220,12)	(232,61)	
L1D -233>	(3,101)	(233,60)	(232,109)	(221,37)	(218,40)	(227,13)	(217,6)	(0,54)	(24,19)	(1,10)	(6,19)	(-20,1)	(219,13)	(2,3)	(222,4)	(26,9)	
L1D -232>	(0,46)	(234,81)	(221,14)	(-117,13)	(-111,9)	(1,16)	(233,7)	(-120,5)	(19,4)	(6,24)	(270,1)	(219,12)	(232,19)	(229,64)	(230,56)	(3,47)	
L1D -231>	(228,7)	(6,9)	(0,26)	(221,84)	(-7,1)	(-114,6)	(3,6)	(238,4)	(231,13)	(-116,2)	(234,4)	(-117,1)	(-99,1)	(-118,3)	(121,1)	(1,7)	
L1D -230>	(110,36)	(-5,1)	(4,30)	(-8,57)	(6,108)	(2,15)	(0,63)	(229,106)	(230,20)	(218,16)	(221,43)	(-6,19)	(-118,11)	(3,16)	(232,18)	(227,30)	
L1D -229>	(219,8)	(220,6)	(6,6)	(0,66)	(374,5)	(-103,39)	(232,26)	(221,3)	(-216,7)	(-9,21)	(1,9)	(226,22)	(235,4)	(227,10)	(-218,1)	(3,33)	
L1D -228>	(0,6)	(-118,2)	(228,14)	(225,4)	(220,52)	(219,5)	(221,72)	(218,2)	(-104,6)	(231,4)	(-111,1)	(3,1)	(6,4)	(216,0)	(-116,1)	(-114,0)	
L1D -227>	(-110,5)	(3,54)	(224,117)	(1,9)	(227,27)	(0,4)	(-102,1)	(89,4)	(6,8)	(-105,27)	(230,9)	(113,9)	(-108,5)	(226,5)	(220,11)	(-106,24)	
L1D -226>	(3,105)	(223,77)	(224,74)	(89,1)	(5,40)	(-106,52)	(6,12)	(-5,2)	(221,12)	(0,11)	(1,4)	(-108,4)	(222,2)	(219,26)	(227,14)	(226,15)	
L1D -225>	(225,14)	(0,23)	(-118,1)	(-13,33)	(3,30)	(116,15)	(220,5)	(6,127)	(239,2)	(-20,3)	(228,11)	(-116,2)	(219,2)	(-102,5)	(-108,2)	(221,30)	
L1D -224>	(220,3)	(-14,3)	(3,20)	(221,73)	(5,2)	(-111,3)	(224,8)	(-108,4)	(2,1)	(-107,3)	(113,1)	(108,2)	(0,17)	(6,3)	(222,4)	(-110,5)	
L1D -223>	(2,7)	(221,79)	(223,13)	(40,1)	(0,89)	(3,17)	(219,23)	(265,3)	(1,3)	(220,17)	(-102,1)	(6,29)	(5,3)	(-111,5)	(-114,3)	(225,1)	
L1D -222>	(-27,2)	(219,4)	(6,96)	(-4,11)	(221,24)	(0,3)	(225,6)	(-110,11)	(-2,2)	(220,5)	(-8,2)	(222,7)	(-20,1)	(-117,4)	(-105,1)	(3,14)	
L1D -221>	(6,3)	(29,0)	(0,9)	(221,85)	(224,4)	(230,0)	(111,4)	(246,0)	(3,7)	(110,3)	(439,2)	(220,2)	(-111,9)	(233,3)	(-110,7)	(84,6)	
L1D -220>	(0,6)	(221,56)	(220,94)	(269,3)	(239,3)	(-8,4)	(266,1)	(233,1)	(241,6)	(242,6)	(246,1)	(-6,2)	(229,1)	(6,3)	(114,1)	(-107,2)	
L1D -219>	(273,7)	(238,2)	(220,52)	(219,98)	(229,3)	(272,6)	(0,1)	(271,2)	(274,3)	(263,2)	(255,1)	(239,1)	(248,7)	(262,1)	(108,2)	(6,4)	
L1D -218>	(219,82)	(218,52)	(245,9)	(337,1)	(254,2)	(265,3)	(272,2)	(233,2)	(279,2)	(275,3)	(264,3)	(108,6)	(3,7)	(270,11)	(271,3)	(259,7)	
L1D -217>	(218,127)	(227,1)	(237,2)	(264,3)	(111,46)	(110,73)	(3,13)	(6,9)	(217,74)	(123,61)	(239,2)	(0,2)	(270,6)	(272,9)	(214,12)	(113,8)	
L1D -216>	(217,60)	(-10,1)	(6,10)	(216,85)	(11,6)	(0,16)	(110,42)	(111,117)	(114,8)	(5,7)	(-110,4)	(3,8)	(20,14)	(113,107)	(122,17)	(-11,18)	
L1D -215>	(215,100)	(218,29)	(6,21)	(121,31)	(0,14)	(-5,43)	(111,33)	(109,2)	(110,98)	(5,10)	(216,24)	(112,60)	(113,53)	(305,1)	(-11,33)	(212,14)	
L1D -214>	(120,16)	(0,90)	(-6,26)	(110,66)	(5,3)	(214,7)	(-5,16)	(12,7)	(210,1)	(13,6)	(111,5)	(217,4)	(107,6)	(1,26)	(-20,8)	(6,50)	
L1D -213>	(-5,26)	(119,6)	(105,1)	(7,2)	(213,21)	(111,18)	(110,22)	(6,18)	(1,2)	(-6,47)	(0,115)	(3,2)	(334,4)	(-2,2)	(17,2)	(11,6)	
L1D -212>	(0,12)	(212,25)	(210,8)	(109,12)	(11,4)	(334,29)	(-6,23)	(-11,20)	(110,5)	(-9,4)	(105,18)	(6,91)	(118,59)	(-24,1)	(209,16)	(219,6)	
L1D -211>	(5,43)	(-5,29)	(-6,84)	(117,103)	(-11,42)	(6,103)	(0,24)	(106,8)	(211,25)	(-21,20)	(-25,5)	(209,36)	(-2,10)	(2,1)	(208,21)	(1,23)	
L1D -210>	(210,45)	(110,10)	(107,106)	(0,3)	(116,30)	(208,5)	(-6,53)	(-17,9)	(3,4)	(6,16)	(-12,8)	(334,7)	(324,1)	(105,31)	(11,3)	(5,11)	
L1D -209>	(-6,64)	(6,107)	(209,8)	(0,17)	(115,13)	(-11,18)	(113,2)	(-120,1)	(-25,9)	(26,12)	(216,1)	(-16,2)	(-5,24)	(11,15)	(4,1)	(5,17)	
L1D -208>	(-102,2)	(208,1)	(0,10)	(114,86)	(105,3)	(5,23)	(6,48)	(-6,10)	(-5,11)	(-1,4)	(-27,6)	(-11,6)	(329,2)	(207,2)	(-118,4)	(12,1)	
L1D -207>	(-6,37)	(0,8)	(6,60)	(-1,2)	(207,37)	(5,18)	(-3,2)	(4,1)	(105,5)	(11,13)	(328,2)	(113,91)	(-4,3)	(210,7)	(2,11)	(-2,4)	
L1D -206>	(4,1)	(6,101)	(208,9)	(5,8)	(0,13)	(-3,2)	(113,17)	(-36,3)	(213,6)	(-26,3)	(206,35)	(112,9)	(-37,4)	(110,9)	(-6,24)	(-22,2)	
L1D -205>	(-6,81)	(5,20)	(-102,3)	(-38,17)	(0,25)	(412,1)	(2,2)	(6,24)	(204,18)	(203,7)	(1,6)	(-149,2)	(-16,8)	(-5,30)	(-11,3)	(111,14)	
L1D -204>	(1,1)	(6,110)	(203,42)	(0,25)	(11,18)	(-6,57)	(205,4)	(110,9)	(-41,18)	(3,56)	(204,16)	(201,6)	(5,29)	(-103,6)	(111,45)	(-5,37)	
L1D -203>	(114,3)	(2,107)	(203,20)	(6,99)	(110,34)	(206,1)	(-2,1)	(3,18)	(-6,20)	(0,21)	(5,8)	(-5,2)	(199,1)	(109,13)	(-22,4)	(113,6)	
L1D -202>	(200,73)	(3,7)	(-6,125)	(0,19)	(5,20)	(6,97)	(1,6)	(-4,5)	(-5,2)	(-16,19)	(334,4)	(202,18)	(-41,16)	(108,6)	(-10,3)	(-36,4)	
L1D -201>	(112,12)	(204,37)	(111,18)	(-3,18)	(105,3)	(6,88)	(107,1)	(11,26)	(-6,53)	(5,33)	(0,12)	(108,84)	(3,7)	(332,10)	(201,26)	(-11,19)	
L1D -200>	(6,95)	(111,57)	(106,6)	(328,1)	(200,18)	(5,6)	(-6,15)	(1,4)	(107,7)	(196,4)	(-38,36)	(-47,12)	(-1,7)	(-11,8)	(110,5)	(197,14)	
L1D -199>	(5,100)	(-4,12)	(7,44)	(199,25)	(2,5)	(-18,9)	(-13,2)	(6,7)	(110,19)	(116,5)	(-6,4)	(334,2)	(171,1)	(11,1)	(0,13)	(-40,96)	
L1D -198>	(109,31)	(329,7)	(0,8)	(5,7)	(335,1)	(198,11)	(-5,54)	(1,6)	(105,74)	(6,39)	(195,39)	(108,21)	(104,3)	(-10,13)	(-6,37)	(-11,13)	
L1D -197>	(108,84)	(328,1)	(5,12)	(114,3)	(197,28)	(335,1)	(113,1)	(6,14)	(104,22)	(196,1)	(0,7)	(318,1)	(-11,1)	(-6,10)	(1,5)	(-42,6)	
L1D -196>	(107,118)	(194,6)	(196,33)	(110,93)	(3,72)	(1,47)	(-5,30)	(5,23)	(-6,53)	(333,18)	(6,13)	(-7,22)	(-2,15)	(-11,10)	(103,15)	(-47,1)	
L1D -195>	(6,30)	(106,17)	(110,76)	(111,82)	(102,76)	(195,23)	(168,9)	(334,1)	(-6,14)	(1,17)	(105,37)	(-3,9)	(-27,35)	(332,8)	(3,20)	(60,15)	
L1D -194>	(100,3)	(5,8)	(-6,9)	(194,20)	(105,50)	(1,3)	(111,65)	(3,4)	(0,11)	(-5,3)	(-2,5)	(-49,1)	(6,12)	(331,2)	(332,7)	(110,10)	
L1D -193>	(329,28)	(193,63)	(-1,8)	(107,9)	(331,22)	(-5,73)	(1,15)	(2,10)	(6,10)	(100,6)	(-3,8)	(334,19)	(99,2)	(-6,32)	(104,10)	(-46,8)	
L1D -192>	(-6,92)	(192,83)	(102,41)	(5,42)	(103,23)	(-47,10)	(-5,108)	(328,45)	(0,7)	(107,52)	(329,45)	(108,51)	(140,1)	(-3,60)	(-53,13)	(-17,3)	
L1D -191>	(191,44)	(-1,1)	(-6,30)	(329,3)	(-5,65)	(105,3)	(0,2)	(102,15)	(-17,2)	(5,3)	(305,0)	(328,6)	(108,6)	(107,7)	(327,1)	(-3,9)	
L1D -190>	(-1,36)	(6,2)	(-6,86)	(-12,1)	(1,16)	(190,6)	(188,15)	(-22,1)	(5,71)	(-53,2)	(-49,5)	(0,13)	(-56,21)	(-21,2)	(44,2)	(-36,1)	
L1D -189>	(5,80)	(9,5)	(187,3)	(-6,46)	(1,4)	(-5,17)	(-12,1)	(6,7)	(-53,1)	(54,1)	(0,8)	(61,0)	(-1,1)	(-54,12)	(33,1)	(392,0)	
L1D -188>	(-55,50)	(0,32)	(-6,25)	(5,92)	(184,10)	(-136,2)	(188,4)	(-12,7)	(4,14)	(187,7)	(1,14)	(33,2)	(211,2)	(195,1)	(134,1)	(-18,1)	
L1D -187>	(-1,21)	(5,123)	(-6,17)	(187,92)	(6,5)	(184,2)	(0,18)	(-56,23)	(-5,22)	(-51,3)	(-12,4)	(-20,31)	(-69,2)	(2,1)	(-52,22)	(14,1)	
L1D -186>	(186,2)	(-6,43)	(1,4)	(110,2)	(0,14)	(58,2)	(182,20)	(24,4)	(-2,7)	(74,1)	(2,1)	(-169,1)	(5,2)	(-1,3)	(-53,2)	(232,1)	
L1D -185>	(65,2)	(5,8)	(0,21)	(-53,1)	(-6,18)	(-75,31)	(-54,2)	(9,16)	(-2,7)	(188,1)	(2,3)	(-1,1)	(1,22)	(34,2)	(33,2)	(4,3)	
L1D -184>	(-6,46)	(0,31)	(7,3)	(-3,3)	(-111,1)	(1,17)	(13,1)	(-114,1)	(181,1)	(26,1)	(142,1)	(28,1)	(-72,1)	(-5,4)	(-142,1)	(184,2)	
L1D -183>	(254,0)	(2,53)	(0,84)	(-4,0)	(-6,6)	(186,0)	(6,0)	(-122,0)	(185,2)	(-2,2)	(-9,0)	(182,2)	(4,0)	(5,0)	(58,0)	(183,0)	
L1D -182>	(9,5)	(-26,2)	(1,99)	(-6,30)	(0,13)	(-86,1)	(4,6)	(5,5)	(358,1)	(-10,1)	(182,4)	(406,1)	(-5,3)	(163,1)	(-128,1)	(-9,1)	
L1D -181>	(282,2)	(-6,13)	(1,4)	(5,4)	(0,20)	(-1,4)	(83,1)	(254,2)	(182,4)	(38,1)	(183,4)	(-192,1)	(348,1)	(23,1)	(-65,1)	(-111,1)	
L1D -180>	(180,2)	(185,2)	(9,27)	(34,30)	(33,4)	(50,26)	(174,1)	(191,1)	(-20,1)	(4,1)	(0,21)	(28,2)	(-11,1)	(176,6)	(117,1)	(38,2)	
L1D -179>	(193,1)	(34,13)	(-6,3)	(2,1)	(179,7)	(1,6)	(0,17)	(4,10)	(-8,1)	(305,1)	(176,1)	(43,1)	(-99,1)	(239,1)	(183,1)	(-120,1)	
L1D -178>	(0,16)	(98,1)	(1,7)	(32,2)	(-105,8)	(179,1)	(-225,1)	(18,1)	(174,31)	(-80,4)	(216,1)	(-134,1)	(64,1)	(-257,1)	(10,2)	(-129,1)	
L1D -177>	(1,107)	(177,93)	(3,13)	(4,5)	(171,24)	(0,10)	(-6,1)	(2,9)	(90,5)	(5,1)	(-81,32)	(366,1)	(346,9)	(-128,1)	(-1,2)	(12,1)	
L1D -176>	(171,63)	(177,34)	(0,31)	(1,3)	(2,1)	(172,50)	(218,1)	(9,12)	(149,1)	(-7,1)	(-145,1)	(304,1)	(-2,1)	(-44,1)	(-18,1)	(-81,1)	
L1D -175>	(0,14)	(255,1)	(5,0)	(177,2)	(-168,16)	(170,75)	(6,14)	(-53,2)	(3,2)	(239,0)	(175,1)	(171,3)	(196,0)	(-28,0)	(32,0)	(10,2)	
L1D -174>	(50,11)	(1,4)	(28,14)	(168,71)	(0,23)	(418,0)	(-3,57)	(87,7)	(2,0)	(181,0)	(106,0)	(115,0)	(6,0)	(1,0)	(1,0)	(1,0)	
L1D -173>	(-68,0)	(2,71)	(-1,32)	(0,7)	(28,70)	(45,0)	(48,0)	(86,3)	(9,0)	(172,0)	(5,0)	(6,0)	(174,0)	(33,0)	(342,0)	(1,0)	
L1D -172>	(2,30)	(173,16)	(178,12)	(1,4)	(29,2)	(167,107)	(0,24)	(47,1)	(-4,3)	(28,1)	(131,1)	(-72,1)	(176,10)	(48,7)	(172,4)	(117,1)	
L1D -171>	(171,111)	(177,42)	(188,0)	(4,36)	(-138,0)	(167,3)	(-93,0)	(6,0)	(3,2)	(0,4)	(90,44)	(-232,1)	(-127,1)	(118,5)	(-4,27)	(9,0)	
L1D -170>	(33,78)	(170,6)	(-168,7)	(0,8)	(6,49)	(-171,0)	(-130,0)	(20,1)	(-167,3)	(171,1)	(183,0)	(-50,0)	(-233,0)	(1,0)	(-128,0)	(162,0)	
L1D -169>	(-6,8)	(27,8)	(169,9)	(1,8)	(0,20)	(-174,1)	(6,2)	(35,1)	(50,1)	(167,1)	(-1,9)	(10,1)	(-186,1)	(-170,1)	(172,1)	(65,2)	
L1D -168>	(-4,0)	(249,0)	(87,13)	(1,29)	(-3,74)	(0,1)	(343,66)	(-27,56)	(114,10)	(33,18)	(141,12)	(60,10)	(338,3)	(6,34)	(3,0)	(-21,0)	
L1D -167>	(337,1)	(-4,8)	(0,7)	(86,116)	(105,1)	(167,14)	(-6,1)	(173,1)	(96,0)	(137,0)	(60,0)	(9,0)	(120,0)	(99,0)	(205,0)	(1,0)	
L1D -166>	(1,2)	(384,1)	(348,0)	(0,3)	(-4,69)	(280,0)	(236,0)	(208,0)	(1,0)	(1,0)	(1,0)	(1,0)	(1,0)	(1,0)	(1,0)	(1,0)	
L1D -165>	(-152,1)	(1,69)	(9,14)	(0,28)	(-1,1)	(254,3)	(165,4)	(-3,2)	(-14,9)	(13,1)	(139,2)	(118,1)	(-192,1)	(248,1)	(-193,1)	(126,1)	
L1D -164>	(9,2)	(-6,30)	(169,78)	(165,3)	(164,2)	(91,1)	(2,1)	(1,4)	(0,7)	(57,0)	(-26,0)	(7,0)	(4,1)	(15,0)	(366,0)	(167,0)	
L1D -163>	(2,5)	(162,1)	(27,0)	(254,0)	(0,74)	(166,0)	(3,0)	(134,0)	(-6,0)	(163,0)	(24,0)	(290,0)	(1,0)	(1,0)	(1,0)	(1,0)	
L1D -162>	(9,17)	(0,8)	(27,29)	(-33,81)	(81,18)	(54,45)	(-91,1)	(108,15)	(298,1)	(135,12)	(216,1)	(1,2)	(315,0)	(-28,1)	(-160,0)	(-45,0)	
L1D -161>	(0,84)	(-14,90)	(-1,1)	(1,5)	(-8,3)	(282,1)	(161,4)	(45,1)	(6,1)	(162,3)	(19,2)	(-9,1)	(10,1)	(2,1)	(24,1)	(85,1)	
L1D -160>	(12,14)	(156,27)	(-125,2)	(0,20)	(3,12)	(66,2)	(98,1)	(334,1)	(-1,1)	(18,1)	(26,2)	(32,3)	(-75,1)	(85,1)	(160,4)	(161,5)	
L1D -159>	(-99,120)	(-98,7)	(0,2)	(27,1)	(2,1)	(410,1)	(156,1)	(159,0)	(1,1)	(1,0)	(1,0)	(1,0)	(1,0)	(1,0)	(1,0)	(1,0)	
L1D -158>	(2,5)	(-46,6)	(0,80)	(61,1)	(123,0)	(9,0)	(158,0)	(6,0)	(-125,0)	(394,0)	(32,0)	(-2,0)	(1,1)	(-8,1)	(1,0)	(1,0)	
L1D -157>	(1,3)	(128,1)	(3,46)	(-1,7)	(2,6)	(157,9)	(0,8)	(-2,5)	(-8,1)	(13,8)	(158,3)	(122,1)	(6,2)	(-133,1)	(155,1)	(156,11)	
L1D -156>	(-18,1)	(-8,85)	(0,24)	(156,3)	(157,9)	(9,13)	(2,22)	(371,2)	(-1,18)	(3,5)	(26,1)	(1,5)	(-47,1)	(34,1)	(-256,1)	(247,1)	
L1D -155>	(-1,12)	(2,4)	(9,1)	(-8,91)	(-3,8)	(155,2)	(12,1)	(0,35)	(156,27)	(-2,2)	(-108,0)	(219,0)	(150,0)	(-30,0)	(1,0)	(1,0)	
L1D -154>	(0,19)	(1,6)	(-1,29)	(154,5)	(155,9)	(-3,1)	(-8,8)	(28,1)	(135,1)	(81,1)	(420,1)	(-105,1)	(-134,2)	(127,2)	(91,1)	(-11,1)	
L1D -153>	(9,45)	(0,15)	(-3,1)	(1,9)	(154,4)	(-8,18)	(12,12)	(5,3)	(153,9)	(-140,1)	(260,1)	(-108,1)	(27,1)	(2,1)	(-135,1)	(152,1)	
L1D -152>	(0,37)	(153,7)	(6,2)	(152,8)	(12,6)	(-359,8)	(-9,2)	(172,1)	(-1,32)	(85,2)	(99,2)	(151,1)	(1,6)	(44,1)	(-8,3)	(-50,1)	
L1D -151>	(282,2)	(0,17)	(1,6)	(29,1)	(-304,1)	(151,6)	(5,1)	(267,1)	(-126,1)	(152,3)	(17,1)	(-140,1)	(-9,1)	(2,1)	(-13,1)	(-5,1)	
L1D -150>	(150,27)	(35,2)	(-2,1)	(85,1)	(0,39)	(149,1)	(299,2)	(-139,1)	(1,18)	(-137,4)	(264,2)	(-140,3)	(163,2)	(151,4)	(91,1)	(-12,1)	
L1D -149>	(0,72)	(1,67)	(-123,1)	(149,5)	(354,1)	(3,15)	(27,1)	(150,1)	(9,12)	(48,1)	(2,1)	(-115,2)	(-2,1)	(13,4)	(-84,0)	(-4,1)	
L1D -148>	(144,9)	(1,46)	(-1,4)	(3,15)	(-10,5)	(0,22)	(71,1)	(148,1)	(-147,1)	(-196,1)	(50,1)	(149,7)	(146,94)	(422,1)	(2,1)	(19,1)	
L1D -147>	(141,65)	(-2,1)	(17,1)	(29,1)	(41,0)	(-33,15)	(1,2)	(0,9)	(148,0)	(-12,0)	(145,1)	(-22,0)	(2,0)	(147,2)	(296,0)	(32,0)	
L1D -146>	(147,68)	(9,118)	(2,45)	(72,13)	(-33,23)	(284,3)	(1,3)	(0,22)	(-1,17)	(-3,2)	(133,1)	(149,1)	(294,4)	(-14,3)	(146,15)	(295,3)	
L1D -145>	(2,6)	(12,47)	(1,12)	(7,3)	(5,25)	(145,6)	(147,6)	(-14,20)	(9,4)	(144,1)	(146,5)	(-1,2)	(445,1)	(-8,3)	(0,8)	(47,1)	
L1D -144>	(9,10)	(7,96)	(-9,1)	(12,4)	(0,86)	(-128,1)	(145,2)	(73,1)	(128,1)	(-199,0)	(2,1)	(-48,0)	(328,0)	(1,0)	(-26,22)	(144,7)	
L1D -143>	(19,9)	(0,52)	(1,2)	(-9,1)	(135,1)	(-1,85)	(143,5)	(-13,0)	(144,9)	(124,0)	(420,5)	(75,0)	(27,1)	(165,0)	(85,0)	(147,1)	
L1D -142>	(5,9)	(0,18)	(143,1)	(-1,3)	(-3,1)	(142,10)	(19,15)	(140,1)	(32,2)	(71,2)	(1,10)	(-36,1)	(372,1)	(3,7)	(2,2)	(144,4)	
L1D -141>	(0,2)	(309,1)	(114,21)	(-27,117)	(60,13)	(87,16)	(33,12)	(168,14)	(6,26)	(23,1)	(-149,2)	(142,2)	(-191,2)	(35,0)	(143,0)	(141,0)	
L1D -140>	(0,22)	(-191,4)	(-33,5)	(1,22)	(186,1)	(64,1)	(143,2)	(-149,12)	(-192,11)	(140,13)	(73,1)	(9,52)	(141,11)	(303,1)	(108,1)	(-255,1)	
L1D -139>	(1,9)	(0,12)	(139,9)	(-149,4)	(3,9)	(19,4)	(2,4)	(138,1)	(-2,4)	(-192,4)	(129,1)	(123,1)	(-34,1)	(11,1)	(37,1)	(140,1)	
L1D -138>	(2,113)	(9,1)	(0,116)	(-93,3)	(-149,3)	(-1,1)	(-89,1)	(-134,1)	(135,36)	(140,2)	(3,1)	(1,3)	(-193,1)	(138,6)	(-133,0)	(165,0)	
L1D -137>	(0,9)	(-194,1)	(-131,1)	(-84,1)	(140,26)	(139,8)	(-33,28)	(5,1)	(-7,113)	(134,2)	(138,1)	(-149,1)	(200,1)	(147,0)	(-195,3)	(-14,1)	
L1D -136>	(0,103)	(-93,4)	(138,3)	(-195,19)	(-84,4)	(136,9)	(3,1)	(1,1)	(137,5)	(133,1)	(139,40)	(-89,2)	(135,1)	(134,10)	(66,1)	(120,1)	
L1D -135>	(0,19)	(-93,5)	(6,17)	(138,1)	(2,3)	(219,14)	(9,6)	(-60,20)	(108,23)	(81,27)	(54,31)	(-33,74)	(27,51)	(137,47)	(162,3)	(-27,28)	
L1D -134>	(50,1)	(218,114)	(5,4)	(-93,21)	(-193,3)	(-89,21)	(140,7)	(0,10)	(219,39)	(1,35)	(272,10)	(273,8)	(-200,3)	(-198,7)	(217,3)	(131,57)	
L1D -133>	(217,32)	(-3,3)	(0,6)	(83,1)	(405,1)	(133,2)	(-5,0)	(219,7)	(-12,0)	(1,0)	(-1,0)	(110,0)	(218,70)	(270,2)	(271,1)	(137,0)	
L1D -132>	(-3,2)	(6,112)	(129,2)	(217,125)	(135,3)	(132,4)	(33,5)	(64,1)	(0,11)	(179,30)	(133,2)	(218,67)	(134,4)	(216,4)	(219,6)	(269,2)	
L1D -131>	(9,7)	(-136,1)	(6,6)	(-89,2)	(0,4)	(-201,2)	(111,1)	(1,1)	(-93,3)	(216,19)	(217,77)	(128,1)	(-13,3)	(218,27)	(219,6)	(131,3)	
L1D -130>	(218,39)	(216,93)	(217,32)	(127,3)	(1,9)	(130,5)	(0,5)	(141,1)	(-13,1)	(2,1)	(110,5)	(219,12)	(-39,1)	(132,2)	(21,1)	(-2,1)	
L1D -129>	(-149,87)	(129,3)	(0,9)	(1,5)	(-13,4)	(9,4)	(132,3)	(217,42)	(218,56)	(215,5)	(476,2)	(6,1)	(216,6)	(130,3)	(3,1)	(134,2)	
L1D -128>	(126,3)	(2,111)	(155,1)	(-93,5)	(218,3)	(0,30)	(216,14)	(35,1)	(283,1)	(125,37)	(128,6)	(217,13)	(179,1)	(219,9)	(-2,4)	(-120,1)	
L1D -127>	(127,10)	(132,34)	(1,2)	(0,20)	(218,100)	(-1,2)	(113,5)	(217,21)	(-105,6)	(-204,6)	(129,6)	(219,1)	(-11,1)	(259,1)	(216,3)	(298,3)	
L1D -126>	(0,7)	(3,7)	(220,107)	(217,14)	(111,1)	(126,4)	(216,1)	(9,7)	(123,2)	(218,2)	(68,1)	(127,14)	(283,2)	(6,17)	(179,6)	(132,8)	
L1D -125>	(126,124)	(219,127)	(216,23)	(127,22)	(217,14)	(0,14)	(1,2)	(290,2)	(3,21)	(125,10)	(-2,7)	(218,14)	(298,3)	(110,2)	(122,1)	(263,1)	
L1D -124>	(218,97)	(247,1)	(216,55)	(125,54)	(217,45)	(21,28)	(-149,9)	(107,5)	(0,6)	(121,4)	(3,3)	(119,5)	(128,10)	(124,3)	(1,7)	(110,6)	
L1D -123>	(123,88)	(113,3)	(121,2)	(114,1)	(3,8)	(110,29)	(111,10)	(105,19)	(334,3)	(0,8)	(217,20)	(112,1)	(-3,1)	(216,4)	(336,1)	(2,0)	
L1D -122>	(216,16)	(122,33)	(111,22)	(113,3)	(125,23)	(117,95)	(2,26)	(0,12)	(4,6)	(118,3)	(123,1)	(110,8)	(119,1)	(219,1)	(114,5)	(3,7)	
L1D -121>	(110,7)	(215,41)	(219,8)	(121,99)	(-1,1)	(-5,13)	(1,6)	(119,12)	(329,3)	(111,30)	(0,8)	(118,13)	(122,22)	(-3,7)	(123,10)	(218,3)	
L1D -120>	(120,107)	(0,12)	(117,9)	(214,19)	(110,23)	(2,1)	(-3,4)	(111,12)	(328,14)	(3,13)	(218,8)	(103,43)	(329,4)	(-6,36)	(1,3)	(107,18)	
L1D -119>	(-212,38)	(5,42)	(213,45)	(219,1)	(-6,18)	(119,105)	(218,49)	(217,25)	(0,24)	(3,13)	(110,93)	(-5,7)	(108,18)	(116,16)	(111,88)	(-103,29)	
L1D -118>	(118,104)	(3,2)	(-3,3)	(73,1)	(329,4)	(-105,2)	(326,2)	(212,18)	(115,1)	(217,7)	(105,7)	(-5,7)	(-2,2)	(327,1)	(117,5)	(343,1)	
L1D -117>	(117,121)	(114,23)	(108,17)	(0,7)	(109,6)	(3,17)	(220,1)	(334,5)	(218,9)	(71,15)	(-2,5)	(347,4)	(-5,17)	(82,9)	(211,6)	(111,11)	
L1D -116>	(116,34)	(220,1)	(122,3)	(111,8)	(3,42)	(115,14)	(0,37)	(107,24)	(210,10)	(218,16)	(219,42)	(119,6)	(113,72)	(81,13)	(110,51)	(108,10)	
L1D -115>	(-5,19)	(80,20)	(-105,8)	(209,21)	(69,9)	(218,117)	(3,19)	(0,25)	(115,87)	(332,8)	(217,11)	(112,96)	(-141,1)	(216,17)	(113,55)	(116,39)	
L1D -114>	(-6,16)	(218,13)	(114,66)	(3,24)	(105,1)	(219,6)	(110,36)	(87,4)	(111,29)	(108,30)	(6,13)	(-27,35)	(329,8)	(331,3)	(208,17)	(198,10)	
L1D -113>	(107,15)	(104,1)	(113,97)	(218,23)	(5,6)	(2,21)	(106,7)	(110,86)	(105,21)	(334,27)	(108,74)	(217,30)	(111,49)	(-3,10)	(0,12)	(3,28)	
L1D -112>	(2,11)	(218,14)	(112,127)	(-5,116)	(113,71)	(334,13)	(108,33)	(110,84)	(217,31)	(-2,1)	(216,9)	(-6,14)	(219,9)	(0,6)	(111,10)	(3,24)	
L1D -111>	(329,22)	(111,112)	(334,32)	(3,11)	(102,1)	(216,9)	(332,32)	(113,11)	(-2,10)	(0,31)	(221,19)	(-6,14)	(105,12)	(108,20)	(110,10)	(-5,4)	
L1D -110>	(214,1)	(108,9)	(0,22)	(331,29)	(113,15)	(221,4)	(328,13)	(329,5)	(217,9)	(110,105)	(3,16)	(111,15)	(107,13)	(102,3)	(215,4)	(-3,14)	
L1D -109>	(-5,11)	(111,22)	(109,79)	(230,1)	(198,5)	(193,14)	(110,17)	(203,5)	(3,17)	(217,33)	(120,16)	(105,10)	(113,11)	(216,35)	(0,7)	(117,4)	
L1D -108>	(111,41)	(-54,33)	(118,13)	(102,1)	(-10,28)	(-6,70)	(0,51)	(191,20)	(-5,64)	(192,51)	(113,24)	(78,65)	(108,109)	(105,21)	(110,27)	(114,21)	
L1D -107>	(108,40)	(110,102)	(107,115)	(111,78)	(193,79)	(331,9)	(200,32)	(221,1)	(192,20)	(-108,11)	(13,18)	(212,17)	(-110,21)	(-109,18)	(113,12)	(120,29)	
L1D -106>	(-5,20)	(106,104)	(117,35)	(0,22)	(12,21)	(200,24)	(3,74)	(102,72)	(-109,59)	(111,64)	(334,1)	(-111,49)	(195,69)	(110,47)	(114,16)	(-6,20)	
L1D -105>	(0,32)	(108,1)	(110,38)	(192,8)	(199,9)	(-6,6)	(-328,80)	(-5,75)	(114,67)	(221,22)	(111,107)	(194,20)	(198,20)	(105,89)	(-111,9)	(-4,23)	
L1D -104>	(-5,8)	(-110,1)	(193,124)	(-112,16)	(218,21)	(105,3)	(110,3)	(113,47)	(331,5)	(108,30)	(104,85)	(2,13)	(-113,22)	(-111,6)	(10,14)	(-6,4)	
L1D -103>	(60,121)	(218,17)	(0,15)	(219,22)	(221,3)	(-1,2)	(192,51)	(-114,2)	(193,10)	(-5,35)	(-113,9)	(110,2)	(103,3)	(105,4)	(-6,12)	(217,1)	
L1D -102>	(-7,13)	(9,76)	(191,33)	(102,5)	(105,2)	(110,6)	(-113,1)	(-5,27)	(-114,1)	(0,74)	(107,1)	(111,8)	(-96,1)	(192,1)	(216,1)	(-3,2)	
L1D -101>	(9,25)	(102,37)	(68,103)	(1,7)	(-115,26)	(105,10)	(103,28)	(0,28)	(141,1)	(101,54)	(111,41)	(-116,27)	(107,8)	(-117,6)	(-3,10)	(110,9)	
L1D -100>	(-7,1)	(193,127)	(218,10)	(1,5)	(-5,55)	(0,34)	(447,5)	(-115,37)	(110,11)	(100,17)	(-117,57)	(-108,21)	(-110,12)	(-116,94)	(6,43)	(101,10)	
L1D -99>	(-5,3)	(0,66)	(87,3)	(62,108)	(24,28)	(99,29)	(89,8)	(-119,1)	(193,2)	(106,0)	(98,4)	(110,1)	(61,4)	(192,10)	(78,12)	(60,11)	
L1D -98>	(98,63)	(-1,19)	(0,69)	(60,84)	(29,1)	(78,66)	(191,3)	(28,10)	(192,1)	(97,9)	(-119,7)	(-118,4)	(99,6)	(-120,2)	(-9,0)	(111,1)	
L1D -97>	(98,127)	(-4,1)	(-118,10)	(97,24)	(101,12)	(-96,1)	(0,9)	(110,1)	(121,1)	(-117,2)	(1,54)	(99,5)	(-120,38)	(29,46)	(-119,38)	(-121,9)	
L1D -96>	(-9,79)	(110,5)	(97,8)	(108,1)	(0,10)	(1,10)	(-119,2)	(98,6)	(99,4)	(107,18)	(-110,2)	(101,13)	(-120,5)	(-121,4)	(113,2)	(282,3)	
L1D -95>	(1,64)	(24,5)	(0,21)	(108,18)	(9,78)	(95,13)	(59,4)	(113,3)	(2,29)	(75,5)	(111,1)	(105,2)	(-53,1)	(-114,2)	(489,1)	(-128,1)	
L1D -94>	(-118,40)	(210,19)	(212,20)	(-121,18)	(-119,20)	(-120,15)	(-10,20)	(209,74)	(94,1)	(211,123)	(208,62)	(-115,10)	(218,36)	(215,37)	(217,74)	(-123,23)	
L1D -93>	(9,79)	(2,7)	(-2,3)	(-105,1)	(-108,14)	(215,1)	(221,2)	(-123,2)	(-8,11)	(-125,2)	(-107,1)	(-100,5)	(5,1)	(229,3)	(222,1)	(93,4)	
L1D -92>	(9,67)	(0,118)	(97,10)	(-124,84)	(403,1)	(13,4)	(-9,81)	(-123,17)	(107,17)	(78,3)	(93,11)	(-114,2)	(-4,2)	(-125,6)	(1,4)	(89,12)	
L1D -91>	(-13,1)	(96,114)	(-124,34)	(175,5)	(0,1)	(-125,6)	(6,1)	(111,1)	(290,1)	(-126,3)	(-39,1)	(78,1)	(-127,1)	(-52,0)	(65,1)	(32,0)	
L1D -90>	(-127,25)	(90,6)	(9,3)	(-108,8)	(-103,4)	(96,1)	(-116,3)	(0,5)	(91,88)	(6,16)	(-126,9)	(-105,4)	(-128,4)	(-102,3)	(-111,3)	(218,3)	
L1D -89>	(-127,6)	(98,1)	(-112,67)	(-104,65)	(-108,53)	(-102,8)	(223,15)	(89,91)	(-4,14)	(-107,14)	(220,118)	(226,7)	(204,3)	(-111,28)	(225,6)	(227,20)	
L1D -88>	(2,4)	(6,46)	(0,66)	(88,5)	(-110,0)	(-129,11)	(111,1)	(-5,1)	(-128,6)	(219,12)	(-113,0)	(-130,5)	(26,15)	(-8,0)	(-127,1)	(9,0)	
L1D -87>	(0,78)	(98,102)	(-128,7)	(-111,2)	(-4,2)	(6,13)	(88,20)	(60,8)	(114,3)	(-130,9)	(141,2)	(33,12)	(-27,75)	(222,6)	(-129,11)	(-6,3)	
L1D -86>	(0,47)	(-130,53)	(-114,8)	(86,108)	(-4,25)	(85,4)	(221,1)	(1,13)	(87,36)	(-110,38)	(-131,53)	(-105,13)	(-132,9)	(9,41)	(-1,20)	(-8,6)	
L1D -85>	(222,5)	(45,1)	(92,6)	(-111,4)	(-8,75)	(107,8)	(1,3)	(221,7)	(218,4)	(-108,47)	(-131,36)	(-113,10)	(-132,29)	(219,46)	(-130,38)	(-133,6)	
L1D -84>	(-132,94)	(-131,18)	(-134,20)	(-114,15)	(85,11)	(0,9)	(224,1)	(-133,96)	(-108,28)	(84,9)	(220,6)	(218,72)	(221,13)	(-107,8)	(-111,19)	(-109,40)	
L1D -83>	(2,5)	(-9,111)	(0,82)	(-114,4)	(-113,2)	(-135,10)	(218,4)	(-134,33)	(-133,19)	(-131,2)	(144,1)	(84,1)	(-108,11)	(-5,23)	(-111,9)	(108,10)	
L1D -82>	(-304,1)	(117,75)	(-5,4)	(71,1)	(46,0)	(6,0)	(26,1)	(82,0)	(0,0)	(1,0)	(1,0)	(1,0)	(1,0)	(1,0)	(1,0)	(1,0)	
L1D -81>	(9,3)	(-7,60)	(116,42)	(0,1)	(135,20)	(-13,8)	(-60,35)	(-81,8)	(-87,24)	(27,115)	(-27,62)	(-114,9)	(-33,88)	(54,66)	(-54,32)	(108,46)	
L1D -80>	(115,97)	(69,3)	(-223,1)	(4,1)	(72,0)	(103,0)	(18,3)	(80,1)	(-1,0)	(0,1)	(81,4)	(1,1)	(34,0)	(1,0)	(1,0)	(1,0)	
L1D -79>	(0,39)	(61,65)	(1,32)	(27,6)	(79,8)	(75,36)	(40,4)	(26,47)	(65,33)	(52,15)	(-13,52)	(13,9)	(99,7)	(78,18)	(132,1)	(39,13)	
L1D -78>	(60,126)	(0,93)	(-1,8)	(87,11)	(386,0)	(98,21)	(99,10)	(65,0)	(113,16)	(354,0)	(89,6)	(358,0)	(83,1)	(-13,1)	(26,0)	(-26,0)	
L1D -77>	(1,59)	(3,1)	(120,1)	(212,1)	(9,123)	(75,7)	(0,35)	(77,7)	(36,1)	(-33,1)	(130,1)	(-1,2)	(76,6)	(-12,1)	(52,1)	(22,1)	
L1D -76>	(12,2)	(47,3)	(1,16)	(73,104)	(2,11)	(4,7)	(76,18)	(32,2)	(82,13)	(52,1)	(0,75)	(-181,2)	(-33,3)	(83,3)	(77,3)	(-184,1)	
L1D -75>	(2,36)	(263,6)	(18,85)	(9,8)	(0,116)	(447,6)	(1,43)	(32,7)	(133,3)	(72,7)	(35,3)	(132,1)	(73,1)	(77,5)	(169,13)	(75,3)	
L1D -74>	(17,94)	(259,6)	(-1,25)	(-8,6)	(222,1)	(74,73)	(100,23)	(1,7)	(84,11)	(2,39)	(0,5)	(75,10)	(72,13)	(76,6)	(372,1)	(26,2)	
L1D -73>	(1,99)	(72,4)	(2,18)	(130,6)	(4,46)	(73,20)	(-108,2)	(131,4)	(392,1)	(-234,1)	(0,25)	(3,2)	(67,3)	(74,12)	(64,1)	(-164,1)	
L1D -72>	(71,0)	(-3,0)	(1,75)	(-2,9)	(0,2)	(-1,9)	(-8,2)	(9,6)	(257,10)	(3,0)	(72,0)	(293,2)	(-4,2)	(18,0)	(73,0)	(1,0)	
L1D -71>	(76,3)	(424,1)	(0,5)	(47,1)	(1,95)	(120,0)	(136,0)	(72,0)	(71,1)	(32,0)	(-341,0)	(2,0)	(1,0)	(1,0)	(1,0)	(1,0)	
L1D -70>	(-85,127)	(0,26)	(394,1)	(1,12)	(2,3)	(70,9)	(-2,1)	(-230,1)	(-4,2)	(154,1)	(71,8)	(62,1)	(386,1)	(-66,1)	(1,0)	(1,0)	
L1D -69>	(22,100)	(1,1)	(0,6)	(74,4)	(-87,1)	(121,1)	(69,4)	(-85,14)	(207,1)	(70,1)	(-16,0)	(-86,1)	(21,0)	(-3,0)	(-1,0)	(-2,0)	
L1D -68>	(2,112)	(75,34)	(32,3)	(1,12)	(0,22)	(52,2)	(-108,1)	(69,50)	(-8,2)	(22,11)	(9,23)	(70,1)	(204,1)	(68,3)	(17,8)	(57,1)	
L1D -67>	(203,2)	(-9,2)	(1,119)	(0,22)	(68,5)	(72,1)	(67,32)	(2,4)	(3,10)	(61,30)	(-16,2)	(74,5)	(-1,1)	(65,1)	(342,1)	(49,1)	
L1D -66>	(9,4)	(-12,15)	(1,9)	(0,5)	(-45,120)	(-8,22)	(65,8)	(63,12)	(39,5)	(26,10)	(13,13)	(67,10)	(52,13)	(-7,1)	(-13,20)	(66,3)	
L1D -65>	(39,1)	(1,85)	(-8,8)	(3,0)	(59,1)	(65,1)	(53,1)	(78,1)	(-1,5)	(-9,0)	(-13,4)	(26,0)	(51,0)	(-26,0)	(13,1)	(0,1)	
L1D -64>	(322,0)	(1,75)	(65,0)	(0,3)	(69,2)	(-48,0)	(32,1)	(162,0)	(64,1)	(81,0)	(61,14)	(181,0)	(-7,0)	(-4,0)	(-8,0)	(40,0)	
L1D -63>	(2,5)	(9,23)	(1,5)	(120,1)	(0,97)	(63,2)	(146,1)	(64,1)	(62,1)	(116,0)	(-65,0)	(65,0)	(153,0)	(10,0)	(100,1)	(3,0)	
L1D -62>	(0,103)	(1,26)	(-137,1)	(8,4)	(-10,1)	(-23,12)	(2,27)	(62,6)	(65,4)	(92,1)	(-218,1)	(68,2)	(-220,1)	(30,1)	(366,1)	(63,3)	
L1D -61>	(-108,1)	(1,88)	(62,0)	(-218,0)	(99,2)	(-219,2)	(257,0)	(0,2)	(-220,0)	(-18,0)	(61,1)	(46,0)	(40,0)	(34,0)	(24,0)	(1,0)	
L1D -60>	(60,97)	(99,47)	(-27,24)	(104,1)	(0,36)	(-1,16)	(-219,3)	(2,2)	(48,1)	(-83,1)	(4,0)	(-84,2)	(6,18)	(1,26)	(-215,0)	(33,33)	
L1D -59>	(-1,1)	(8,0)	(-8,23)	(1,74)	(19,0)	(47,1)	(-219,5)	(0,7)	(48,4)	(-7,0)	(-218,6)	(59,2)	(-84,14)	(-217,1)	(-220,1)	(9,7)	
L1D -58>	(-85,1)	(2,85)	(47,5)	(58,3)	(0,103)	(1,27)	(-8,19)	(60,1)	(-218,3)	(-219,1)	(-1,1)	(20,1)	(-216,1)	(-4,4)	(-2,1)	(52,1)	
L1D -57>	(1,19)	(-219,1)	(-10,7)	(57,73)	(51,1)	(-1,6)	(58,8)	(62,2)	(9,1)	(46,11)	(-220,1)	(-218,9)	(40,0)	(6,0)	(0,1)	(-85,0)	
L1D -56>	(55,1)	(-108,1)	(-4,2)	(-83,1)	(61,3)	(1,37)	(-6,1)	(6,11)	(48,1)	(0,8)	(16,1)	(41,1)	(45,79)	(33,2)	(56,12)	(2,1)	
L1D -55>	(1,66)	(-1,21)	(43,1)	(-83,14)	(-2,1)	(0,13)	(2,4)	(49,2)	(60,1)	(-216,0)	(116,0)	(55,0)	(-220,0)	(-217,1)	(46,0)	(45,2)	
L1D -54>	(-87,7)	(-27,76)	(-81,4)	(81,14)	(59,1)	(1,41)	(0,2)	(-84,21)	(-114,5)	(27,47)	(-141,3)	(-54,10)	(-52,4)	(-60,12)	(-33,31)	(108,10)	
L1D -53>	(54,28)	(2,6)	(1,55)	(0,72)	(53,33)	(-13,7)	(-12,19)	(-84,11)	(-3,28)	(39,6)	(48,9)	(161,1)	(26,5)	(-18,16)	(-26,3)	(58,4)	
L1D -52>	(0,26)	(1,124)	(45,7)	(-220,1)	(39,3)	(-13,13)	(-219,3)	(-85,42)	(52,11)	(47,16)	(247,28)	(-1,16)	(40,4)	(-218,8)	(53,12)	(24,9)	
L1D -51>	(0,26)	(-85,89)	(324,1)	(1,54)	(44,25)	(-20,2)	(52,8)	(6,13)	(46,62)	(51,25)	(56,4)	(-1,2)	(41,4)	(2,6)	(48,4)	(40,12)	
L1D -50>	(1,97)	(6,2)	(97,5)	(-2,1)	(246,4)	(0,21)	(-219,11)	(41,7)	(4,25)	(-217,2)	(9,6)	(-220,8)	(55,3)	(-86,1)	(-218,34)	(50,2)	
L1D -49>	(1,92)	(-219,36)	(49,30)	(50,4)	(-86,66)	(0,107)	(2,12)	(-217,10)	(35,1)	(7,5)	(43,5)	(-220,15)	(246,14)	(-218,41)	(56,24)	(47,2)	
L1D -48>	(1,97)	(-218,39)	(2,54)	(-219,23)	(-2,1)	(49,8)	(48,7)	(0,31)	(-220,14)	(-87,4)	(-217,14)	(-1,24)	(-29,1)	(18,4)	(-86,1)	(-216,1)	
L1D -47>	(48,1)	(-5,1)	(-220,2)	(1,33)	(-87,11)	(47,114)	(0,38)	(36,4)	(45,18)	(-6,1)	(245,20)	(172,1)	(-18,15)	(11,1)	(-108,25)	(7,1)	
L1D -46>	(-16,4)	(56,14)	(1,20)	(-4,33)	(4,12)	(44,60)	(47,1)	(398,1)	(-217,1)	(93,26)	(-88,9)	(-218,13)	(-220,4)	(35,4)	(45,86)	(-18,9)	
L1D -45>	(9,24)	(-2,6)	(40,6)	(93,95)	(52,9)	(-6,2)	(8,3)	(1,23)	(72,3)	(6,2)	(2,1)	(0,3)	(5,1)	(18,1)	(35,3)	(45,11)	
L1D -44>	(6,93)	(0,39)	(11,3)	(-6,2)	(51,3)	(44,13)	(43,11)	(243,4)	(1,43)	(-4,1)	(-220,2)	(5,2)	(45,7)	(-218,4)	(38,2)	(-217,3)	
L1D -43>	(-7,103)	(1,23)	(-13,9)	(5,44)	(-12,15)	(43,8)	(2,8)	(41,29)	(11,4)	(6,4)	(0,101)	(70,9)	(-219,11)	(-218,5)	(45,18)	(13,1)	
L1D -42>	(1,27)	(80,1)	(42,15)	(-219,1)	(33,56)	(36,1)	(45,113)	(0,7)	(-43,2)	(6,40)	(41,2)	(-90,13)	(242,10)	(-218,1)	(32,1)	(43,4)	
L1D -41>	(1,14)	(0,67)	(-90,11)	(41,2)	(42,2)	(-219,5)	(6,1)	(-1,32)	(-212,1)	(-220,2)	(2,7)	(-217,3)	(24,1)	(35,0)	(-80,0)	(-218,10)	
L1D -40>	(39,3)	(0,8)	(-39,1)	(-16,67)	(-219,9)	(-91,10)	(-13,6)	(65,1)	(13,3)	(-12,19)	(1,2)	(27,2)	(-218,1)	(40,2)	(-26,1)	(26,4)	
L1D -39>	(9,91)	(1,21)	(26,42)	(0,47)	(-13,102)	(6,12)	(-1,65)	(13,44)	(50,96)	(-187,1)	(52,16)	(241,14)	(38,14)	(25,15)	(19,12)	(40,15)	
L1D -38>	(45,0)	(2,7)	(-1,0)	(1,39)	(36,80)	(5,4)	(38,18)	(-92,11)	(0,60)	(-217,0)	(-2,2)	(-234,0)	(6,3)	(-220,0)	(-218,1)	(-60,5)	
L1D -37>	(1,76)	(196,45)	(19,6)	(6,6)	(-2,1)	(32,1)	(0,13)	(37,5)	(-218,2)	(13,1)	(2,15)	(-217,2)	(3,1)	(-220,2)	(17,1)	(-219,2)	
L1D -36>	(1,21)	(9,23)	(38,112)	(36,43)	(239,2)	(41,2)	(-218,6)	(37,6)	(3,3)	(46,1)	(-220,1)	(-217,1)	(30,1)	(-219,1)	(-93,4)	(17,1)	
L1D -35>	(239,5)	(-82,101)	(35,58)	(42,2)	(-80,83)	(1,41)	(0,8)	(6,7)	(-81,44)	(-78,17)	(4,1)	(-93,2)	(24,1)	(34,2)	(5,1)	(31,1)	
L1D -34>	(34,115)	(33,54)	(1,31)	(0,8)	(26,27)	(4,2)	(-1,6)	(36,7)	(35,3)	(-14,1)	(31,1)	(-248,1)	(3,1)	(156,1)	(29,2)	(2,2)	
L1D -33>	(-248,1)	(2,7)	(6,93)	(60,2)	(-62,1)	(-27,40)	(-220,0)	(33,10)	(1,2)	(0,5)	(-216,0)	(19,3)	(-212,0)	(34,2)	(28,0)	(87,0)	
L1D -32>	(-1,7)	(28,18)	(0,89)	(-219,6)	(1,83)	(-14,74)	(9,8)	(102,11)	(32,23)	(7,2)	(21,7)	(-218,6)	(-217,7)	(16,3)	(5,7)	(41,1)	
L1D -31>	(0,20)	(7,8)	(32,2)	(29,6)	(28,3)	(2,12)	(1,84)	(417,18)	(9,7)	(31,6)	(125,1)	(-14,70)	(-11,5)	(4,12)	(-54,9)	(-10,4)	
L1D -30>	(31,6)	(2,7)	(0,25)	(9,98)	(7,59)	(1,115)	(-96,13)	(3,65)	(-219,11)	(18,9)	(6,81)	(-2,17)	(44,14)	(30,34)	(236,10)	(-72,1)	
L1D -29>	(9,16)	(0,35)	(1,124)	(7,21)	(26,85)	(-6,2)	(-1,76)	(-128,1)	(6,30)	(29,19)	(30,9)	(-219,120)	(2,6)	(-220,1)	(-96,5)	(43,70)	
L1D -28>	(2,71)	(-14,17)	(256,7)	(24,1)	(-248,1)	(1,112)	(30,2)	(-216,2)	(10,58)	(0,124)	(20,5)	(25,15)	(29,1)	(28,4)	(32,16)	(56,12)	
L1D -27>	(114,3)	(40,90)	(27,70)	(-13,32)	(1,93)	(54,3)	(9,49)	(0,9)	(87,2)	(33,108)	(-33,101)	(60,25)	(-27,86)	(-60,3)	(-25,3)	(6,38)	
L1D -26>	(-1,2)	(0,33)	(6,42)	(-3,14)	(1,78)	(27,24)	(33,116)	(34,18)	(35,41)	(180,25)	(28,10)	(25,39)	(45,28)	(26,17)	(5,25)	(19,44)	
L1D -25>	(0,9)	(1,69)	(-6,16)	(41,10)	(-98,3)	(-219,1)	(-7,14)	(5,4)	(-57,0)	(24,1)	(22,1)	(25,1)	(21,1)	(20,0)	(26,0)	(4,1)	
L1D -24>	(24,17)	(1,96)	(-5,4)	(-47,1)	(2,8)	(0,17)	(25,5)	(-6,36)	(33,2)	(26,5)	(21,5)	(4,36)	(-7,33)	(16,5)	(20,2)	(-1,10)	
L1D -23>	(1,31)	(2,102)	(-332,1)	(20,1)	(-1,14)	(22,33)	(0,94)	(-6,2)	(11,1)	(-7,95)	(3,8)	(9,14)	(23,24)	(16,4)	(-54,1)	(35,2)	
L1D -22>	(2,24)	(21,7)	(1,46)	(0,51)	(13,13)	(-5,1)	(-1,5)	(-7,70)	(250,17)	(-100,1)	(33,2)	(-332,1)	(22,10)	(6,3)	(-6,9)	(34,7)	
L1D -21>	(9,9)	(1,44)	(22,1)	(0,33)	(-1,7)	(24,9)	(-78,60)	(-4,17)	(26,6)	(21,74)	(25,8)	(-3,34)	(12,6)	(17,12)	(-100,5)	(232,5)	
L1D -20>	(0,103)	(-2,10)	(1,98)	(3,7)	(6,29)	(25,11)	(24,16)	(26,35)	(20,74)	(4,14)	(13,46)	(-332,4)	(-1,5)	(19,25)	(23,33)	(-78,1)	
L1D -19>	(0,17)	(1,67)	(-1,4)	(-12,6)	(-13,5)	(26,1)	(15,1)	(-7,65)	(19,11)	(28,5)	(-86,2)	(-4,10)	(6,1)	(-332,5)	(17,3)	(14,1)	
L1D -18>	(38,2)	(0,45)	(1,59)	(-35,6)	(-5,9)	(-7,72)	(22,1)	(2,30)	(-1,13)	(-3,31)	(4,39)	(9,11)	(-6,7)	(-2,5)	(-12,2)	(18,1)	
L1D -17>	(1,107)	(56,3)	(-332,7)	(0,35)	(6,8)	(-102,3)	(2,8)	(16,41)	(-91,5)	(-1,9)	(4,3)	(-6,2)	(12,7)	(17,9)	(230,1)	(-7,9)	
L1D -16>	(1,64)	(16,119)	(17,16)	(7,4)	(2,30)	(10,1)	(6,10)	(-332,2)	(56,2)	(-3,18)	(-83,28)	(-5,16)	(0,45)	(-219,4)	(25,85)	(-37,2)	
L1D -15>	(6,2)	(3,1)	(0,27)	(24,2)	(229,2)	(1,83)	(2,6)	(4,5)	(13,2)	(-4,1)	(-1,3)	(-2,7)	(15,6)	(11,3)	(31,7)	(9,9)	
L1D -14>	(1,101)	(0,36)	(10,11)	(14,118)	(6,25)	(-12,15)	(19,1)	(9,16)	(4,5)	(13,36)	(2,20)	(16,13)	(-14,12)	(282,11)	(-2,53)	(5,6)	
L1D -13>	(4,55)	(0,66)	(1,36)	(2,34)	(-1,13)	(5,9)	(15,7)	(-7,2)	(12,5)	(13,22)	(-104,1)	(-5,13)	(-3,1)	(16,0)	(-16,4)	(271,0)	
L1D -12>	(6,22)	(11,11)	(-1,91)	(-105,2)	(12,10)	(10,3)	(2,7)	(25,2)	(-14,16)	(-49,1)	(-13,7)	(0,9)	(4,3)	(1,2)	(-26,2)	(5,11)	
L1D -11>	(0,35)	(1,125)	(9,26)	(6,51)	(-3,34)	(5,4)	(30,6)	(-1,23)	(271,3)	(15,20)	(11,14)	(8,15)	(12,63)	(-7,14)	(-6,1)	(-5,3)	
L1D -10>	(1,55)	(218,1)	(10,35)	(0,95)	(2,103)	(-6,23)	(-8,15)	(-2,31)	(28,15)	(117,22)	(-3,44)	(7,29)	(-10,36)	(4,59)	(21,16)	(-98,22)	
L1D -9>	(-7,33)	(5,120)	(-4,51)	(36,2)	(-105,2)	(12,19)	(15,2)	(0,4)	(-90,0)	(13,1)	(9,19)	(227,0)	(1,8)	(2,1)	(-6,15)	(-110,0)	
L1D -8>	(8,6)	(5,55)	(2,60)	(1,43)	(15,1)	(-8,90)	(9,31)	(-1,12)	(0,100)	(-3,9)	(-5,14)	(-4,14)	(10,9)	(115,8)	(-2,2)	(-7,6)	
L1D -7>	(-13,1)	(0,24)	(5,99)	(61,12)	(1,56)	(2,3)	(12,1)	(3,2)	(-26,3)	(7,40)	(-5,8)	(-1,18)	(10,11)	(9,4)	(-11,3)	(-107,1)	
L1D -6>	(-3,26)	(11,3)	(1,73)	(-1,5)	(-5,13)	(-46,2)	(-51,1)	(-102,12)	(-13,1)	(-237,12)	(6,40)	(-11,4)	(5,3)	(0,4)	(-6,3)	(12,6)	
L1D -5>	(-5,1)	(-12,1)	(9,10)	(-1,1)	(1,89)	(110,2)	(11,1)	(218,1)	(-7,0)	(10,1)	(12,2)	(-103,2)	(-8,5)	(5,9)	(6,10)	(0,0)	
L1D -4>	(-5,46)	(31,11)	(-11,25)	(7,28)	(-171,1)	(3,5)	(4,85)	(1,33)	(-3,19)	(-18,5)	(0,26)	(12,13)	(-13,3)	(238,11)	(-168,3)	(2,3)	
L1D -3>	(2,53)	(10,1)	(0,105)	(1,24)	(-5,11)	(-8,3)	(22,2)	(4,3)	(3,20)	(9,29)	(-7,10)	(-1,3)	(5,19)	(-9,3)	(-2,4)	(-3,8)	
L1D -2>	(0,10)	(-3,49)	(7,64)	(1,25)	(-8,12)	(237,1)	(2,17)	(-2,59)	(6,2)	(3,3)	(247,1)	(110,1)	(-1,2)	(-163,1)	(-13,7)	(12,3)	
L1D -1>	(-217,2)	(0,87)	(-12,30)	(-8,9)	(-1,14)	(26,1)	(-7,15)	(7,1)	(1,97)	(-3,11)	(198,2)	(-24,1)	(3,3)	(2,1)	(12,1)	(-2,9)	
L1D 0>	(-4,5)	(0,110)	(306,1)	(1,10)	(7,3)	(-332,1)	(-98,1)	(-6,3)	(-2,13)	(-8,2)	(2,22)	(3,4)	(20,1)	(-1,3)	(-9,10)	(9,1)	
L1D 1>	(3,4)	(1,111)	(0,2)	(10,2)	(-25,1)	(9,1)	(-9,1)	(8,2)	(-2,1)	(-6,1)	(84,0)	(2,3)	(-4,1)	(-5,14)	(5,1)	(-1,9)	
L1D 2>	(0,111)	(103,1)	(4,4)	(-1,36)	(-9,33)	(-6,13)	(-2,98)	(1,78)	(-7,12)	(121,1)	(-4,41)	(2,4)	(5,8)	(51,2)	(-24,2)	(-3,11)	
L1D 3>	(1,79)	(5,24)	(2,12)	(-7,11)	(-3,56)	(-9,6)	(-4,9)	(0,42)	(-13,28)	(7,10)	(-6,4)	(6,4)	(120,1)	(-1,5)	(-8,3)	(-10,3)	
L1D 4>	(1,50)	(-4,83)	(-6,4)	(-5,1)	(-277,5)	(-3,5)	(0,7)	(-7,9)	(9,77)	(-47,5)	(6,3)	(-32,0)	(-96,0)	(10,6)	(3,1)	(-1,8)	
L1D 5>	(-4,3)	(0,33)	(-3,6)	(140,1)	(5,73)	(-11,5)	(-5,22)	(210,1)	(-7,6)	(7,127)	(2,6)	(10,20)	(-6,26)	(-15,1)	(1,17)	(-2,22)	
L1D 6>	(5,81)	(9,26)	(0,8)	(-173,1)	(-1,11)	(20,3)	(-7,7)	(-12,3)	(-174,4)	(-33,26)	(-11,12)	(-8,1)	(-6,17)	(-3,2)	(1,8)	(14,3)	
L1D 7>	(-3,1)	(0,92)	(5,39)	(-2,17)	(2,11)	(-7,28)	(-71,1)	(-53,1)	(9,11)	(6,1)	(-6,3)	(-10,1)	(4,0)	(-1,2)	(-16,0)	(1,5)	
L1D 8>	(1,90)	(-1,1)	(-8,2)	(-279,1)	(0,17)	(-6,1)	(-7,1)	(8,11)	(-2,1)	(-9,1)	(-283,0)	(2,1)	(-306,1)	(9,1)	(-5,0)	(5,4)	
L1D 9>	(-9,76)	(0,74)	(-4,11)	(218,3)	(3,3)	(-12,1)	(-87,1)	(215,1)	(9,2)	(1,5)	(-113,1)	(-8,7)	(-2,2)	(-10,1)	(-16,4)	(-25,1)	
L1D 10>	(8,8)	(4,2)	(-6,2)	(7,13)	(-108,3)	(2,12)	(1,7)	(-1,6)	(-2,13)	(-15,6)	(0,22)	(-11,126)	(-8,9)	(5,17)	(-4,12)	(-10,5)	
L1D 11>	(-12,35)	(-7,46)	(-11,72)	(0,24)	(-10,108)	(2,29)	(-27,8)	(-40,1)	(-2,22)	(-20,26)	(1,70)	(-5,17)	(-6,66)	(6,14)	(-4,39)	(5,4)	
L1D 12>	(1,39)	(-7,124)	(-8,3)	(-3,108)	(-6,4)	(-11,103)	(2,10)	(-236,1)	(9,4)	(-5,5)	(-2,2)	(4,6)	(5,7)	(-10,8)	(0,44)	(-12,74)	
L1D 13>	(-7,18)	(7,91)	(1,6)	(-12,100)	(0,16)	(-1,17)	(9,7)	(-4,17)	(26,35)	(-6,1)	(-126,6)	(94,6)	(-13,21)	(-10,2)	(-2,17)	(-11,10)	
L1D 14>	(-4,100)	(-12,9)	(-7,3)	(1,5)	(0,9)	(-15,2)	(-13,61)	(2,8)	(-8,3)	(-5,3)	(-6,2)	(26,14)	(257,2)	(-1,10)	(-11,3)	(-14,39)	
L1D 15>	(0,9)	(-4,43)	(-14,118)	(-2,1)	(-11,7)	(-10,3)	(-16,2)	(313,6)	(-223,1)	(1,1)	(9,3)	(214,1)	(-15,6)	(6,1)	(-1,53)	(-7,6)	
L1D 16>	(-15,97)	(1,78)	(0,33)	(-17,1)	(-11,2)	(-3,9)	(86,13)	(20,8)	(-16,10)	(40,61)	(-6,6)	(-8,6)	(-7,46)	(-2,9)	(-1,8)	(-5,4)	
L1D 17>	(-4,125)	(-30,2)	(-23,5)	(-8,1)	(-331,1)	(0,20)	(-17,2)	(34,2)	(-3,4)	(-6,2)	(-12,1)	(1,1)	(-20,3)	(-31,1)	(-9,0)	(-1,3)	
L1D 18>	(-8,1)	(-6,7)	(0,32)	(-78,10)	(20,2)	(21,42)	(32,1)	(9,96)	(1,51)	(35,1)	(34,1)	(-23,5)	(-18,26)	(-3,1)	(-11,22)	(-24,3)	
L1D 19>	(1,85)	(-18,16)	(2,8)	(-11,7)	(-1,13)	(7,12)	(234,2)	(-332,2)	(-3,7)	(0,60)	(6,15)	(220,1)	(-19,4)	(-6,10)	(196,1)	(-23,3)	
L1D 20>	(-1,3)	(-38,1)	(-6,26)	(6,2)	(-18,9)	(8,2)	(-20,81)	(0,27)	(-26,33)	(5,19)	(-98,9)	(-19,4)	(-5,2)	(-332,7)	(-16,6)	(3,8)	
L1D 21>	(-2,2)	(6,8)	(-18,52)	(11,26)	(-99,33)	(-11,24)	(-20,14)	(-12,1)	(7,32)	(0,4)	(-21,76)	(-24,4)	(-3,10)	(-25,36)	(-17,27)	(-23,16)	
L1D 22>	(-17,3)	(2,67)	(-108,42)	(5,1)	(-18,15)	(-16,74)	(-24,6)	(-22,35)	(-21,7)	(146,124)	(0,52)	(9,115)	(306,44)	(-66,40)	(-19,26)	(-332,6)	
L1D 23>	(-22,15)	(5,4)	(-332,5)	(0,23)	(-331,3)	(2,1)	(3,1)	(-23,116)	(-20,11)	(-6,7)	(-5,3)	(-19,6)	(-1,2)	(-8,9)	(-18,1)	(-3,2)	
L1D 24>	(-23,17)	(-332,1)	(9,104)	(146,65)	(0,61)	(32,34)	(33,4)	(-6,24)	(29,57)	(-21,52)	(-24,124)	(-5,20)	(5,10)	(1,26)	(-20,47)	(-18,13)	
L1D 25>	(-24,99)	(-27,122)	(50,1)	(-4,7)	(1,14)	(-29,11)	(-3,13)	(-5,9)	(-21,12)	(-2,2)	(-25,59)	(-1,33)	(-22,15)	(49,3)	(6,7)	(-12,31)	
L1D 26>	(-22,1)	(-28,12)	(1,19)	(5,35)	(-25,3)	(2,23)	(54,52)	(-26,68)	(-23,13)	(6,5)	(-20,17)	(-21,10)	(-3,7)	(-5,7)	(-12,13)	(-2,5)	
L1D 27>	(-81,17)	(54,17)	(-114,4)	(0,14)	(-27,48)	(-54,45)	(27,24)	(-60,64)	(9,75)	(-13,21)	(-87,17)	(53,1)	(-23,56)	(-25,80)	(81,8)	(-168,6)	
L1D 28>	(-14,102)	(-28,57)	(6,8)	(1,5)	(147,9)	(-27,116)	(0,18)	(4,83)	(11,13)	(-85,19)	(-4,1)	(-39,4)	(28,46)	(-54,44)	(17,26)	(-26,39)	
L1D 29>	(1,47)	(-11,3)	(58,3)	(3,21)	(-39,3)	(-28,116)	(-128,1)	(17,1)	(-29,5)	(-1,32)	(-30,3)	(0,30)	(2,21)	(6,8)	(69,9)	(-246,2)	
L1D 30>	(-6,5)	(16,4)	(-30,26)	(1,110)	(6,8)	(-29,7)	(0,92)	(-2,5)	(-1,82)	(2,28)	(-11,2)	(-8,2)	(58,1)	(62,2)	(3,69)	(60,13)	
L1D 31>	(0,0)	(6,1)	(-41,0)	(7,2)	(222,0)	(-2,0)	(-108,0)	(62,0)	(17,0)	(9,123)	(-1,0)	(110,0)	(4,0)	(-31,0)	(-22,0)	(61,0)	
L1D 32>	(2,34)	(-33,8)	(-32,8)	(-31,4)	(1,5)	(0,66)	(-11,6)	(-2,6)	(-8,1)	(-1,1)	(-34,1)	(70,48)	(64,2)	(-56,8)	(-30,16)	(44,0)	
L1D 33>	(-33,44)	(2,16)	(-46,5)	(9,52)	(0,62)	(279,1)	(-27,108)	(-34,3)	(267,1)	(-31,15)	(54,1)	(1,12)	(-60,36)	(-7,40)	(-1,17)	(27,6)	
L1D 34>	(9,11)	(70,3)	(-34,37)	(0,78)	(-33,8)	(-8,29)	(6,5)	(-1,33)	(-5,4)	(1,2)	(-35,5)	(67,1)	(68,6)	(11,1)	(3,1)	(-11,1)	
L1D 35>	(6,13)	(-118,1)	(-117,28)	(-113,6)	(-35,5)	(0,30)	(-115,15)	(-116,10)	(11,4)	(-34,3)	(70,3)	(5,6)	(-3,42)	(7,66)	(204,17)	(-1,2)	
L1D 36>	(2,91)	(9,100)	(192,1)	(-36,71)	(0,3)	(128,25)	(-16,8)	(17,1)	(-7,4)	(-9,7)	(6,18)	(-6,3)	(5,1)	(1,2)	(72,2)	(3,1)	
L1D 37>	(2,5)	(-7,6)	(-6,2)	(1,2)	(17,2)	(11,2)	(0,110)	(-1,5)	(-37,27)	(159,87)	(-2,2)	(6,9)	(271,1)	(73,3)	(5,1)	(74,3)	
L1D 38>	(0,116)	(-98,14)	(-2,125)	(12,6)	(1,32)	(-30,7)	(76,1)	(-12,20)	(-38,2)	(-39,3)	(-5,1)	(226,1)	(-20,1)	(6,5)	(-6,19)	(250,1)	
L1D 39>	(-21,30)	(11,84)	(-5,6)	(-99,25)	(-1,7)	(-12,10)	(1,10)	(-26,1)	(-30,10)	(-8,3)	(226,1)	(-11,21)	(54,3)	(-2,1)	(-42,1)	(2,1)	
L1D 40>	(-34,1)	(386,96)	(0,8)	(1,8)	(-5,17)	(80,1)	(-40,97)	(-2,2)	(6,12)	(-6,20)	(-42,10)	(9,36)	(-11,4)	(-13,9)	(-60,1)	(11,1)	
L1D 41>	(-11,10)	(-41,5)	(-6,21)	(12,1)	(2,3)	(1,37)	(0,13)	(7,96)	(6,51)	(-1,5)	(386,5)	(-2,2)	(5,9)	(-5,15)	(82,1)	(203,1)	
L1D 42>	(9,6)	(0,96)	(-1,9)	(2,5)	(-42,6)	(-44,1)	(5,11)	(-5,3)	(-6,5)	(128,11)	(11,3)	(4,2)	(6,18)	(84,6)	(-16,2)	(86,3)	
L1D 43>	(1,16)	(17,0)	(86,0)	(0,8)	(-42,72)	(-197,0)	(-43,2)	(11,11)	(9,2)	(5,3)	(6,14)	(2,4)	(-44,1)	(-5,3)	(-11,1)	(12,1)	
L1D 44>	(5,1)	(199,6)	(2,1)	(1,110)	(-44,5)	(7,118)	(258,1)	(11,25)	(6,2)	(12,4)	(20,1)	(-6,4)	(90,1)	(0,10)	(-46,11)	(-64,3)	
L1D 45>	(0,10)	(4,4)	(1,23)	(-2,109)	(7,119)	(-11,2)	(-46,1)	(-31,33)	(-47,10)	(9,22)	(-9,113)	(11,30)	(27,5)	(6,33)	(-45,7)	(-1,36)	
L1D 46>	(1,70)	(-5,18)	(-32,1)	(-47,15)	(-3,19)	(6,26)	(5,1)	(-6,17)	(-4,1)	(92,0)	(0,9)	(-11,3)	(-50,2)	(70,7)	(11,1)	(-46,1)	
L1D 47>	(2,4)	(-11,1)	(-47,4)	(-4,66)	(0,103)	(-45,1)	(125,1)	(-31,1)	(1,4)	(-43,1)	(151,0)	(-1,1)	(11,2)	(6,14)	(-108,0)	(-5,10)	
L1D 48>	(6,85)	(-34,1)	(1,10)	(-11,8)	(-5,72)	(98,6)	(0,53)	(-47,4)	(-49,14)	(3,7)	(11,28)	(5,33)	(96,13)	(-6,111)	(-93,10)	(-48,19)	
L1D 49>	(1,9)	(11,3)	(100,7)	(6,90)	(0,52)	(-50,2)	(-49,17)	(-11,5)	(-20,3)	(-4,1)	(12,1)	(7,1)	(5,5)	(9,53)	(98,5)	(97,7)	
L1D 50>	(21,65)	(-110,9)	(-11,4)	(-50,2)	(6,22)	(2,7)	(99,1)	(100,2)	(-48,0)	(-49,2)	(0,6)	(-7,3)	(51,0)	(102,1)	(-2,21)	(-12,10)	
L1D 51>	(102,4)	(-39,1)	(-7,127)	(-272,1)	(9,1)	(2,1)	(-12,30)	(6,27)	(-51,7)	(-5,21)	(5,29)	(-52,4)	(-53,11)	(-6,19)	(-11,36)	(-44,0)	
L1D 52>	(106,4)	(-12,31)	(-5,11)	(-52,12)	(-7,92)	(0,4)	(1,2)	(-53,4)	(-54,4)	(-6,25)	(103,1)	(-11,3)	(6,36)	(-72,2)	(5,14)	(104,5)	
L1D 53>	(-53,43)	(4,1)	(106,9)	(-6,55)	(0,12)	(170,21)	(-146,3)	(-5,40)	(5,75)	(-13,88)	(6,121)	(-11,72)	(105,13)	(-2,2)	(108,38)	(-54,5)	
L1D 54>	(107,39)	(9,42)	(1,109)	(-6,25)	(-5,17)	(-114,10)	(-43,1)	(-27,30)	(-53,24)	(108,91)	(54,7)	(27,15)	(-108,9)	(-87,25)	(-81,26)	(-168,8)	
L1D 55>	(-1,28)	(-11,3)	(121,1)	(-2,5)	(-6,77)	(1,7)	(3,9)	(-56,8)	(112,2)	(2,7)	(109,2)	(-55,12)	(-8,11)	(0,12)	(110,11)	(-53,2)	
L1D 56>	(-219,1)	(-64,1)	(-54,16)	(-1,1)	(-11,112)	(84,3)	(-28,0)	(-2,0)	(-40,15)	(4,0)	(0,0)	(96,0)	(1,0)	(112,1)	(-10,0)	(-56,2)	
L1D 57>	(-1,23)	(1,2)	(-57,69)	(-388,0)	(-11,66)	(114,2)	(-75,12)	(-8,1)	(-6,2)	(113,1)	(-129,0)	(2,9)	(0,1)	(-10,1)	(116,1)	(-2,1)	
L1D 58>	(1,0)	(125,1)	(170,7)	(-58,5)	(2,5)	(-62,2)	(-3,15)	(-11,65)	(-8,8)	(-57,1)	(-10,3)	(116,5)	(-6,11)	(9,12)	(0,70)	(-1,1)	
L1D 59>	(-10,2)	(0,2)	(-56,2)	(-11,69)	(1,1)	(-6,11)	(-1,3)	(4,0)	(-3,39)	(117,0)	(-8,0)	(-59,1)	(118,4)	(17,0)	(-60,0)	(-278,0)	
L1D 60>	(39,71)	(-60,76)	(38,37)	(122,0)	(18,39)	(-61,22)	(0,3)	(81,0)	(321,3)	(-87,1)	(27,0)	(120,1)	(-27,8)	(-54,8)	(-11,5)	(9,1)	
L1D 61>	(9,117)	(-7,1)	(-122,0)	(-60,5)	(18,0)	(-61,0)	(39,3)	(38,2)	(-254,1)	(121,0)	(37,0)	(-6,0)	(127,0)	(1,0)	(184,0)	(259,0)	
L1D 62>	(196,127)	(37,11)	(-61,1)	(-28,0)	(-1,0)	(-62,1)	(-2,0)	(-3,5)	(-194,0)	(0,2)	(2,0)	(-8,2)	(14,0)	(124,1)	(65,0)	(3,1)	
L1D 63>	(-1,24)	(9,72)	(1,4)	(128,2)	(-254,31)	(2,8)	(125,0)	(0,8)	(239,0)	(-63,3)	(126,3)	(-8,29)	(-45,7)	(29,0)	(-67,1)	(-2,1)	
L1D 64>	(-16,1)	(-108,1)	(1,2)	(-62,0)	(-63,1)	(130,0)	(0,18)	(127,1)	(-8,0)	(-1,3)	(-12,100)	(-64,9)	(19,0)	(128,5)	(4,0)	(-34,0)	
L1D 65>	(130,2)	(-65,4)	(246,1)	(0,4)	(-52,4)	(-1,17)	(39,2)	(-26,1)	(-8,2)	(1,4)	(26,1)	(-77,1)	(-12,74)	(-59,1)	(17,1)	(-78,2)	
L1D 66>	(0,62)	(-134,7)	(-64,5)	(-20,38)	(166,5)	(-1,2)	(-6,7)	(1,11)	(-65,7)	(40,17)	(-66,28)	(-3,14)	(134,12)	(132,22)	(-8,100)	(131,4)	
L1D 67>	(2,101)	(-3,9)	(0,12)	(46,2)	(4,3)	(47,2)	(133,2)	(93,3)	(9,31)	(-8,26)	(136,0)	(-67,21)	(-2,1)	(68,2)	(134,4)	(-1,1)	
L1D 68>	(114,104)	(-6,1)	(0,44)	(1,4)	(-45,1)	(136,9)	(-68,9)	(4,1)	(-28,1)	(40,1)	(-20,1)	(164,1)	(138,1)	(82,1)	(-67,1)	(180,1)	
L1D 69>	(9,5)	(1,9)	(-2,19)	(46,11)	(3,4)	(-1,4)	(0,7)	(137,3)	(93,4)	(-64,7)	(-3,1)	(-47,81)	(-5,38)	(-69,3)	(138,3)	(2,2)	
L1D 70>	(9,9)	(-1,2)	(152,5)	(7,84)	(2,17)	(0,7)	(6,66)	(-69,3)	(-60,16)	(142,3)	(-6,1)	(-70,9)	(140,5)	(139,1)	(138,2)	(-19,1)	
L1D 71>	(46,50)	(93,36)	(2,33)	(1,11)	(-1,47)	(-8,71)	(-254,17)	(49,2)	(-7,29)	(0,16)	(182,15)	(-4,29)	(-24,1)	(-71,10)	(142,5)	(-19,2)	
L1D 72>	(0,39)	(9,113)	(-74,4)	(-8,12)	(-72,9)	(-4,8)	(185,15)	(-11,9)	(14,4)	(-6,6)	(1,2)	(-2,2)	(-60,15)	(144,1)	(-76,5)	(-71,4)	
L1D 73>	(-1,79)	(2,10)	(1,8)	(-6,18)	(-7,19)	(-8,26)	(-254,6)	(0,10)	(-2,23)	(-123,1)	(145,2)	(-73,4)	(3,1)	(146,2)	(-3,17)	(-4,16)	
L1D 74>	(0,14)	(74,11)	(-72,4)	(-74,88)	(2,4)	(72,12)	(-77,8)	(375,11)	(109,1)	(-3,9)	(147,2)	(-76,1)	(-2,9)	(148,3)	(185,1)	(-75,1)	
L1D 75>	(-74,97)	(0,101)	(-1,4)	(-75,63)	(1,2)	(2,13)	(-2,2)	(176,1)	(156,2)	(-4,1)	(25,3)	(-3,102)	(-25,2)	(150,2)	(312,1)	(-72,11)	
[...]
L1D 482>	(1,1)	(4,2)	(-484,1)	(-282,1)	(1,0)	(1,0)	(1,0)	(1,0)	(1,0)	(1,0)	(1,0)	(1,0)	(1,0)	(1,0)	(1,0)	(1,0)	
L1D 483>	(0,3)	(4,5)	(1,1)	(1,0)	(1,0)	(1,0)	(1,0)	(1,0)	(1,0)	(1,0)	(1,0)	(1,0)	(1,0)	(1,0)	(1,0)	(1,0)	
L1D 484>	(9,1)	(1,0)	(1,0)	(1,0)	(1,0)	(1,0)	(1,0)	(1,0)	(1,0)	(1,0)	(1,0)	(1,0)	(1,0)	(1,0)	(1,0)	(1,0)	
L1D 485>	(4,6)	(-92,1)	(1,0)	(1,0)	(1,0)	(1,0)	(1,0)	(1,0)	(1,0)	(1,0)	(1,0)	(1,0)	(1,0)	(1,0)	(1,0)	(1,0)	
L1D 486>	(4,2)	(9,2)	(1,1)	(1,0)	(1,0)	(1,0)	(1,0)	(1,0)	(1,0)	(1,0)	(1,0)	(1,0)	(1,0)	(1,0)	(1,0)	(1,0)	
L1D 487>	(1,0)	(1,0)	(1,0)	(1,0)	(1,0)	(1,0)	(1,0)	(1,0)	(1,0)	(1,0)	(1,0)	(1,0)	(1,0)	(1,0)	(1,0)	(1,0)	
L1D 488>	(0,1)	(1,0)	(1,0)	(1,0)	(1,0)	(1,0)	(1,0)	(1,0)	(1,0)	(1,0)	(1,0)	(1,0)	(1,0)	(1,0)	(1,0)	(1,0)	
L1D 489>	(4,1)	(0,1)	(1,0)	(1,0)	(1,0)	(1,0)	(1,0)	(1,0)	(1,0)	(1,0)	(1,0)	(1,0)	(1,0)	(1,0)	(1,0)	(1,0)	
L1D 490>	(-491,1)	(1,2)	(-204,1)	(0,1)	(1,0)	(1,0)	(1,0)	(1,0)	(1,0)	(1,0)	(1,0)	(1,0)	(1,0)	(1,0)	(1,0)	(1,0)	
L1D 491>	(-491,1)	(9,1)	(1,1)	(1,0)	(1,0)	(1,0)	(1,0)	(1,0)	(1,0)	(1,0)	(1,0)	(1,0)	(1,0)	(1,0)	(1,0)	(1,0)	
L1D 492>	(1,1)	(-10,1)	(2,1)	(0,1)	(-48,1)	(-492,1)	(1,0)	(1,0)	(1,0)	(1,0)	(1,0)	(1,0)	(1,0)	(1,0)	(1,0)	(1,0)	
L1D 493>	(4,1)	(1,0)	(1,0)	(1,0)	(1,0)	(1,0)	(1,0)	(1,0)	(1,0)	(1,0)	(1,0)	(1,0)	(1,0)	(1,0)	(1,0)	(1,0)	
L1D 494>	(1,2)	(-10,1)	(1,0)	(1,0)	(1,0)	(1,0)	(1,0)	(1,0)	(1,0)	(1,0)	(1,0)	(1,0)	(1,0)	(1,0)	(1,0)	(1,0)	
L1D 495>	(4,1)	(1,0)	(1,0)	(1,0)	(1,0)	(1,0)	(1,0)	(1,0)	(1,0)	(1,0)	(1,0)	(1,0)	(1,0)	(1,0)	(1,0)	(1,0)	
L1D 496>	(9,1)	(1,0)	(1,0)	(1,0)	(1,0)	(1,0)	(1,0)	(1,0)	(1,0)	(1,0)	(1,0)	(1,0)	(1,0)	(1,0)	(1,0)	(1,0)	
L1D 497>	(0,1)	(-1,1)	(1,0)	(1,0)	(1,0)	(1,0)	(1,0)	(1,0)	(1,0)	(1,0)	(1,0)	(1,0)	(1,0)	(1,0)	(1,0)	(1,0)	
L1D 498>	(4,1)	(1,0)	(1,0)	(1,0)	(1,0)	(1,0)	(1,0)	(1,0)	(1,0)	(1,0)	(1,0)	(1,0)	(1,0)	(1,0)	(1,0)	(1,0)	
L1D 499>	(-1,1)	(1,1)	(1,0)	(1,0)	(1,0)	(1,0)	(1,0)	(1,0)	(1,0)	(1,0)	(1,0)	(1,0)	(1,0)	(1,0)	(1,0)	(1,0)	
L1D 500>	(-488,1)	(-13,1)	(-14,1)	(-27,1)	(1,0)	(1,0)	(1,0)	(1,0)	(1,0)	(1,0)	(1,0)	(1,0)	(1,0)	(1,0)	(1,0)	(1,0)	
L1D 501>	(4,1)	(1,0)	(1,0)	(1,0)	(1,0)	(1,0)	(1,0)	(1,0)	(1,0)	(1,0)	(1,0)	(1,0)	(1,0)	(1,0)	(1,0)	(1,0)	
L1D 502>	(1,1)	(1,0)	(1,0)	(1,0)	(1,0)	(1,0)	(1,0)	(1,0)	(1,0)	(1,0)	(1,0)	(1,0)	(1,0)	(1,0)	(1,0)	(1,0)	
L1D 503>	(4,1)	(2,20)	(0,5)	(1,0)	(1,0)	(1,0)	(1,0)	(1,0)	(1,0)	(1,0)	(1,0)	(1,0)	(1,0)	(1,0)	(1,0)	(1,0)	
L1D 504>	(2,20)	(0,10)	(-2,2)	(1,0)	(1,0)	(1,0)	(1,0)	(1,0)	(1,0)	(1,0)	(1,0)	(1,0)	(1,0)	(1,0)	(1,0)	(1,0)	
L1D 505>	(2,119)	(0,24)	(1,2)	(-2,0)	(1,0)	(1,0)	(1,0)	(1,0)	(1,0)	(1,0)	(1,0)	(1,0)	(1,0)	(1,0)	(1,0)	(1,0)	
L1D 506>	(0,1)	(1,0)	(1,0)	(1,0)	(1,0)	(1,0)	(1,0)	(1,0)	(1,0)	(1,0)	(1,0)	(1,0)	(1,0)	(1,0)	(1,0)	(1,0)	
L1D 507>	(1,0)	(1,0)	(1,0)	(1,0)	(1,0)	(1,0)	(1,0)	(1,0)	(1,0)	(1,0)	(1,0)	(1,0)	(1,0)	(1,0)	(1,0)	(1,0)	
L1D 508>	(-4,1)	(1,0)	(1,0)	(1,0)	(1,0)	(1,0)	(1,0)	(1,0)	(1,0)	(1,0)	(1,0)	(1,0)	(1,0)	(1,0)	(1,0)	(1,0)	
L1D 509>	(-506,1)	(1,0)	(1,0)	(1,0)	(1,0)	(1,0)	(1,0)	(1,0)	(1,0)	(1,0)	(1,0)	(1,0)	(1,0)	(1,0)	(1,0)	(1,0)	
L1D 510>	(1,0)	(1,0)	(1,0)	(1,0)	(1,0)	(1,0)	(1,0)	(1,0)	(1,0)	(1,0)	(1,0)	(1,0)	(1,0)	(1,0)	(1,0)	(1,0)	
L1D 511>	(1,0)	(1,0)	(1,0)	(1,0)	(1,0)	(1,0)	(1,0)	(1,0)	(1,0)	(1,0)	(1,0)	(1,0)	(1,0)	(1,0)	(1,0)	(1,0)	

L2C -64>	(1,190)	(-2,133)	(2,28)	(-1,56)	(-24,1)	(-3,67)	(0,12)	(18,2)	(-14,2)	(7,7)	(3,6)	(-6,54)	(5,4)	(-5,141)	(4,5)	(-4,120)	
L2C -63>	(0,1)	(1,159)	(3,12)	(2,22)	(9,3)	(4,2)	(38,1)	(15,1)	(5,1)	(25,1)	(7,2)	(13,3)	(24,1)	(8,1)	(1,0)	(1,0)	
L2C -62>	(11,2)	(1,31)	(3,6)	(2,7)	(18,3)	(5,2)	(-1,4)	(8,2)	(19,1)	(9,2)	(4,1)	(13,3)	(15,1)	(10,1)	(32,1)	(7,1)	
L2C -61>	(18,3)	(1,19)	(5,5)	(14,1)	(7,2)	(-1,2)	(2,6)	(60,1)	(3,4)	(6,1)	(13,2)	(9,2)	(11,1)	(24,1)	(43,1)	(1,0)	
L2C -60>	(-1,3)	(13,1)	(11,2)	(9,3)	(1,24)	(44,1)	(27,2)	(17,1)	(25,1)	(2,3)	(7,4)	(43,2)	(18,1)	(39,1)	(5,2)	(56,1)	
L2C -59>	(1,22)	(-1,4)	(6,3)	(57,2)	(8,4)	(2,2)	(16,1)	(24,1)	(23,1)	(14,1)	(59,4)	(-2,1)	(5,2)	(32,2)	(37,1)	(11,5)	
L2C -58>	(1,12)	(9,3)	(11,2)	(5,2)	(3,1)	(6,1)	(34,1)	(-1,2)	(12,1)	(60,1)	(4,3)	(57,1)	(7,1)	(14,1)	(18,2)	(28,1)	
L2C -57>	(47,1)	(1,63)	(8,3)	(2,4)	(0,2)	(4,1)	(33,1)	(57,4)	(11,3)	(28,1)	(3,2)	(9,1)	(7,2)	(16,2)	(-1,1)	(-3,3)	
L2C -56>	(1,109)	(9,12)	(2,40)	(8,4)	(0,1)	(-2,1)	(49,1)	(6,3)	(14,4)	(-3,1)	(4,2)	(-1,5)	(50,1)	(55,3)	(58,1)	(11,2)	
L2C -55>	(1,63)	(2,10)	(0,13)	(5,8)	(14,7)	(-1,3)	(8,2)	(28,3)	(51,5)	(6,2)	(-3,1)	(-2,3)	(13,3)	(55,48)	(59,4)	(16,10)	
L2C -54>	(1,51)	(4,10)	(5,9)	(3,10)	(6,21)	(50,4)	(53,1)	(-1,7)	(7,5)	(24,1)	(-2,4)	(54,4)	(60,1)	(-7,2)	(49,2)	(27,4)	
L2C -53>	(2,65)	(1,59)	(7,132)	(63,83)	(9,19)	(52,6)	(35,198)	(-1,6)	(18,3)	(-5,8)	(25,35)	(51,7)	(26,3)	(20,1)	(53,5)	(-2,11)	
L2C -52>	(-5,6)	(2,4)	(1,50)	(5,4)	(49,4)	(51,5)	(-1,7)	(3,3)	(-2,1)	(53,8)	(27,1)	(8,2)	(7,3)	(14,2)	(52,6)	(12,1)	
L2C -51>	(-1,4)	(12,3)	(0,6)	(51,5)	(14,9)	(33,4)	(-2,4)	(1,45)	(49,4)	(50,2)	(4,4)	(2,3)	(32,6)	(7,2)	(16,1)	(6,2)	
L2C -50>	(2,13)	(1,35)	(-6,2)	(51,6)	(-2,5)	(-5,6)	(-3,4)	(4,3)	(17,2)	(-4,3)	(50,12)	(-1,9)	(15,1)	(3,4)	(46,2)	(34,1)	
L2C -49>	(8,2)	(1,38)	(50,6)	(-7,3)	(-2,3)	(0,4)	(7,1)	(9,2)	(52,1)	(24,1)	(2,9)	(12,1)	(-1,10)	(51,3)	(4,2)	(-6,4)	
L2C -48>	(2,5)	(1,27)	(5,5)	(49,7)	(7,2)	(12,2)	(11,1)	(6,1)	(22,1)	(25,1)	(35,1)	(48,24)	(-7,1)	(43,1)	(-1,5)	(0,6)	
L2C -47>	(1,68)	(8,8)	(7,4)	(28,2)	(-1,8)	(0,1)	(-3,3)	(30,4)	(-2,5)	(-5,1)	(2,4)	(51,1)	(27,2)	(11,2)	(47,6)	(-6,2)	
L2C -46>	(18,1)	(15,2)	(1,40)	(44,7)	(-6,1)	(-1,10)	(32,2)	(14,1)	(48,1)	(12,2)	(28,27)	(-5,1)	(-3,2)	(49,1)	(-17,1)	(4,7)	
L2C -45>	(10,2)	(-2,16)	(21,3)	(42,1)	(1,35)	(2,4)	(8,8)	(6,4)	(7,4)	(46,5)	(5,2)	(-1,17)	(-15,1)	(-3,8)	(15,1)	(14,1)	
L2C -44>	(7,21)	(0,2)	(30,23)	(2,23)	(21,4)	(-1,28)	(44,14)	(12,1)	(1,46)	(46,4)	(4,1)	(26,4)	(6,6)	(5,2)	(-13,2)	(3,5)	
L2C -43>	(1,41)	(-3,7)	(42,11)	(27,4)	(44,7)	(3,5)	(35,2)	(0,6)	(10,3)	(-2,3)	(12,2)	(2,2)	(9,4)	(-8,5)	(-13,1)	(-1,20)	
L2C -42>	(-9,13)	(1,44)	(41,217)	(14,131)	(5,4)	(43,34)	(27,7)	(2,12)	(19,16)	(36,8)	(21,6)	(-1,12)	(31,1)	(20,5)	(28,7)	(-2,25)	
L2C -41>	(42,26)	(-2,1)	(1,46)	(2,20)	(7,5)	(4,8)	(12,2)	(41,5)	(6,5)	(40,22)	(0,15)	(28,8)	(20,12)	(-1,27)	(-8,2)	(8,5)	
L2C -40>	(27,22)	(1,45)	(25,2)	(0,1)	(41,15)	(18,5)	(10,3)	(42,4)	(-4,3)	(-2,15)	(-7,3)	(-1,15)	(16,2)	(37,3)	(-13,2)	(39,2)	
L2C -39>	(63,146)	(1,61)	(-4,2)	(-1,203)	(2,16)	(17,2)	(40,23)	(39,6)	(-8,2)	(-12,1)	(-2,5)	(18,1)	(-3,48)	(20,2)	(21,1)	(49,1)	
L2C -38>	(1,54)	(39,23)	(63,48)	(3,6)	(33,3)	(-6,3)	(14,3)	(31,1)	(27,4)	(5,2)	(2,18)	(13,5)	(25,3)	(-1,5)	(-17,6)	(22,2)	
L2C -37>	(40,15)	(2,20)	(36,10)	(1,106)	(42,4)	(-2,1)	(0,8)	(4,4)	(-1,16)	(39,3)	(18,5)	(27,3)	(38,3)	(-3,7)	(32,2)	(-7,3)	
L2C -36>	(-7,8)	(52,4)	(1,72)	(36,16)	(-2,5)	(37,6)	(3,16)	(0,31)	(29,2)	(-1,3)	(2,14)	(9,1)	(6,4)	(12,2)	(17,1)	(33,5)	
L2C -35>	(-1,16)	(27,16)	(1,123)	(33,8)	(-16,3)	(2,31)	(-12,2)	(19,3)	(35,3)	(3,12)	(39,2)	(14,2)	(-6,1)	(8,6)	(28,14)	(38,4)	
L2C -34>	(-1,22)	(1,109)	(29,38)	(33,9)	(21,16)	(28,68)	(7,2)	(5,5)	(18,12)	(25,37)	(16,5)	(-7,6)	(-2,14)	(2,28)	(17,24)	(0,7)	
L2C -33>	(1,170)	(25,15)	(33,20)	(17,5)	(-1,31)	(27,42)	(19,9)	(3,12)	(2,60)	(7,3)	(18,1)	(8,4)	(-20,4)	(31,8)	(28,30)	(34,2)	
L2C -32>	(1,217)	(11,26)	(21,19)	(27,26)	(7,1)	(28,26)	(35,6)	(13,11)	(25,18)	(2,72)	(0,12)	(14,5)	(3,69)	(-1,31)	(34,20)	(30,13)	
L2C -31>	(1,104)	(-3,24)	(2,44)	(21,1)	(0,15)	(32,12)	(8,6)	(29,51)	(-1,160)	(30,7)	(-2,28)	(-6,4)	(4,3)	(27,43)	(3,18)	(28,87)	
L2C -30>	(1,128)	(31,12)	(-1,225)	(7,1)	(32,3)	(-3,16)	(3,15)	(0,8)	(-6,2)	(15,7)	(-2,26)	(2,60)	(35,4)	(9,6)	(12,10)	(29,3)	
L2C -29>	(1,102)	(30,12)	(3,35)	(2,54)	(-2,26)	(8,6)	(5,1)	(18,9)	(29,5)	(-1,61)	(27,13)	(32,9)	(7,9)	(36,5)	(-3,15)	(0,20)	
L2C -28>	(1,140)	(16,19)	(3,15)	(-1,36)	(-3,13)	(2,33)	(32,1)	(0,56)	(30,5)	(28,28)	(-6,3)	(25,11)	(15,4)	(4,4)	(12,13)	(20,33)	
L2C -27>	(23,6)	(1,101)	(33,8)	(-1,42)	(-2,26)	(21,5)	(9,11)	(63,44)	(3,12)	(2,46)	(40,22)	(0,53)	(46,1)	(12,3)	(18,9)	(10,14)	
L2C -26>	(4,7)	(1,214)	(9,8)	(39,5)	(-3,15)	(-12,1)	(11,53)	(27,12)	(14,16)	(2,20)	(29,2)	(24,7)	(-1,61)	(36,6)	(0,9)	(28,4)	
L2C -25>	(-1,70)	(1,75)	(2,22)	(15,1)	(14,39)	(10,12)	(7,12)	(11,11)	(3,11)	(26,8)	(12,6)	(-8,32)	(-3,16)	(13,3)	(43,4)	(24,12)	
L2C -24>	(1,128)	(-3,35)	(17,12)	(-1,68)	(25,11)	(-16,1)	(13,12)	(21,6)	(18,22)	(32,7)	(23,3)	(6,7)	(24,6)	(2,18)	(19,7)	(-13,6)	
L2C -23>	(8,10)	(1,120)	(22,21)	(31,1)	(6,11)	(-16,4)	(-1,102)	(-13,3)	(-11,4)	(19,4)	(26,5)	(2,13)	(12,6)	(5,7)	(-7,7)	(4,12)	
L2C -22>	(1,139)	(-1,96)	(2,1)	(-16,4)	(-3,14)	(12,4)	(16,7)	(30,5)	(23,27)	(-9,8)	(5,11)	(42,3)	(31,5)	(55,4)	(-2,13)	(4,12)	
L2C -21>	(1,157)	(-3,25)	(2,19)	(-8,10)	(4,25)	(21,7)	(-1,93)	(-2,21)	(48,1)	(22,24)	(10,9)	(5,11)	(11,17)	(17,15)	(6,9)	(42,5)	
L2C -20>	(28,11)	(1,196)	(18,22)	(2,45)	(-1,70)	(19,72)	(4,10)	(10,30)	(12,1)	(-2,12)	(-3,56)	(9,4)	(11,11)	(13,33)	(-4,48)	(3,60)	
L2C -19>	(-1,65)	(3,58)	(1,240)	(2,235)	(28,6)	(15,8)	(4,19)	(19,8)	(18,25)	(-3,61)	(-2,37)	(11,9)	(17,10)	(-7,7)	(20,20)	(13,1)	
L2C -18>	(19,46)	(-2,10)	(1,149)	(2,7)	(28,3)	(-3,10)	(3,2)	(18,1)	(26,1)	(12,1)	(29,2)	(-1,9)	(17,7)	(16,6)	(-6,3)	(-7,3)	
L2C -17>	(1,214)	(2,27)	(18,56)	(-3,28)	(-1,9)	(3,22)	(23,8)	(7,6)	(-2,33)	(10,5)	(-7,19)	(19,21)	(25,1)	(27,5)	(22,5)	(12,3)	
L2C -16>	(1,190)	(3,180)	(-2,17)	(8,1)	(14,15)	(17,16)	(22,9)	(-3,25)	(2,137)	(0,42)	(-15,5)	(28,40)	(-1,84)	(24,6)	(16,39)	(23,4)	
L2C -15>	(3,6)	(1,190)	(17,10)	(8,2)	(2,18)	(9,1)	(16,5)	(-1,27)	(10,1)	(6,2)	(-2,18)	(14,11)	(15,22)	(-3,8)	(-38,2)	(5,8)	
L2C -14>	(1,141)	(3,8)	(7,31)	(11,6)	(2,72)	(-1,52)	(16,5)	(12,9)	(6,9)	(0,10)	(-3,86)	(-10,13)	(33,4)	(-4,13)	(59,1)	(26,3)	
L2C -13>	(1,186)	(-1,95)	(17,17)	(8,1)	(-7,101)	(-4,78)	(-2,34)	(3,83)	(4,13)	(-17,4)	(12,19)	(16,9)	(14,77)	(-8,7)	(-5,19)	(10,46)	
L2C -12>	(1,245)	(2,12)	(9,59)	(8,1)	(13,9)	(-1,78)	(0,10)	(10,24)	(11,34)	(6,15)	(15,16)	(-3,29)	(14,15)	(-2,39)	(7,8)	(-5,6)	
L2C -11>	(1,184)	(-1,159)	(5,14)	(-4,29)	(22,1)	(17,19)	(8,25)	(-3,69)	(9,30)	(2,43)	(6,23)	(10,16)	(12,29)	(7,20)	(-2,43)	(4,31)	
L2C -10>	(1,101)	(-3,183)	(-7,100)	(11,11)	(-2,39)	(-1,65)	(8,21)	(34,11)	(12,1)	(9,17)	(3,81)	(2,15)	(-4,83)	(7,56)	(14,16)	(0,17)	
L2C -9>	(1,174)	(3,19)	(2,57)	(-3,37)	(-2,57)	(-1,119)	(6,24)	(5,25)	(9,18)	(-17,1)	(8,26)	(0,13)	(14,8)	(11,11)	(-5,15)	(10,26)	
L2C -8>	(1,192)	(4,24)	(3,95)	(-1,106)	(-4,17)	(-9,2)	(-3,49)	(5,37)	(-2,46)	(16,1)	(2,17)	(6,15)	(8,6)	(10,4)	(-7,4)	(-5,16)	
L2C -7>	(23,1)	(14,5)	(1,69)	(-1,23)	(-10,17)	(-2,14)	(6,11)	(24,2)	(5,9)	(-7,22)	(-4,10)	(-3,153)	(4,12)	(10,12)	(3,15)	(17,3)	
L2C -6>	(1,206)	(-1,237)	(-6,11)	(-2,101)	(2,18)	(8,11)	(-4,17)	(-3,32)	(5,38)	(4,22)	(7,31)	(6,35)	(9,12)	(24,1)	(11,10)	(3,19)	
L2C -5>	(2,14)	(6,19)	(1,130)	(-1,63)	(-3,32)	(-4,39)	(-8,7)	(10,0)	(4,32)	(-6,20)	(5,4)	(3,12)	(-2,47)	(8,9)	(-7,5)	(-5,15)	
L2C -4>	(2,11)	(1,116)	(-1,139)	(-4,164)	(5,22)	(-7,4)	(7,6)	(-2,33)	(-3,71)	(4,12)	(-9,1)	(3,12)	(-10,4)	(6,6)	(8,6)	(14,5)	
L2C -3>	(-4,41)	(1,161)	(-1,245)	(-3,29)	(0,8)	(-13,2)	(5,34)	(4,64)	(2,18)	(-8,5)	(22,18)	(-2,66)	(7,4)	(3,29)	(-5,8)	(-7,30)	
L2C -2>	(-2,121)	(0,38)	(1,152)	(-1,167)	(3,19)	(-31,1)	(2,15)	(4,6)	(-3,9)	(30,2)	(-6,5)	(5,4)	(6,3)	(8,2)	(-16,1)	(62,5)	
L2C -1>	(52,0)	(-1,131)	(5,0)	(-2,23)	(-3,4)	(-40,0)	(2,11)	(-5,3)	(19,0)	(0,3)	(1,7)	(26,0)	(-53,0)	(4,0)	(-4,4)	(3,2)	
L2C 0>	(1,13)	(-47,1)	(-18,1)	(0,150)	(5,1)	(-1,39)	(-16,1)	(-57,0)	(-33,0)	(-4,1)	(10,0)	(3,1)	(11,0)	(2,2)	(-2,1)	(6,1)	
L2C 1>	(1,220)	(-25,1)	(-2,11)	(2,34)	(0,1)	(18,2)	(-6,1)	(-4,7)	(10,1)	(49,1)	(3,12)	(4,2)	(-20,1)	(-5,2)	(-3,4)	(-1,6)	
L2C 2>	(1,162)	(18,2)	(2,20)	(-2,11)	(-41,1)	(-1,34)	(-3,10)	(-5,1)	(-11,1)	(3,7)	(46,2)	(-19,1)	(-4,6)	(4,4)	(0,1)	(-15,4)	
L2C 3>	(-4,17)	(-1,21)	(5,2)	(1,177)	(0,1)	(35,1)	(4,3)	(-8,7)	(-3,7)	(-5,8)	(3,5)	(2,18)	(48,1)	(21,1)	(-2,7)	(7,1)	
L2C 4>	(0,10)	(1,233)	(-7,9)	(2,25)	(3,32)	(11,2)	(-8,26)	(-2,21)	(-1,13)	(-3,55)	(4,5)	(-5,9)	(-6,6)	(18,1)	(7,3)	(-4,17)	
L2C 5>	(-6,18)	(1,238)	(-8,16)	(2,20)	(4,5)	(-15,1)	(-1,75)	(-24,2)	(-5,8)	(-9,4)	(0,7)	(3,10)	(-3,22)	(-7,15)	(-4,35)	(-2,42)	
L2C 6>	(1,184)	(-7,22)	(-1,83)	(-5,32)	(-9,5)	(-3,52)	(3,21)	(2,21)	(-4,12)	(5,3)	(-8,19)	(-2,20)	(4,4)	(12,6)	(0,23)	(-6,16)	
L2C 7>	(1,201)	(2,43)	(-3,95)	(28,2)	(-11,29)	(-5,27)	(-7,11)	(-2,47)	(-9,19)	(3,26)	(-10,58)	(-6,31)	(-14,23)	(0,12)	(18,57)	(-1,66)	
L2C 8>	(1,253)	(2,50)	(0,12)	(4,13)	(-11,21)	(6,10)	(40,21)	(-1,64)	(-3,36)	(-31,1)	(18,35)	(-7,43)	(-5,21)	(-4,56)	(-9,20)	(-2,46)	
L2C 9>	(1,150)	(-3,30)	(3,6)	(-10,12)	(-1,53)	(-11,22)	(-8,12)	(4,4)	(-7,12)	(2,29)	(-9,10)	(-14,1)	(-2,27)	(5,10)	(-5,19)	(-4,14)	
L2C 10>	(1,230)	(-7,46)	(-1,69)	(-6,10)	(-4,20)	(2,19)	(6,10)	(-10,15)	(-13,28)	(-9,14)	(-17,32)	(3,15)	(-2,21)	(-8,19)	(-5,1)	(-3,48)	
L2C 11>	(1,162)	(3,12)	(-5,20)	(-4,33)	(-3,53)	(-1,58)	(-2,21)	(-38,6)	(4,6)	(-14,8)	(-7,33)	(7,8)	(-12,12)	(-9,1)	(2,9)	(-10,21)	
L2C 12>	(1,166)	(-4,23)	(-11,18)	(-3,43)	(-13,85)	(-2,35)	(11,2)	(-15,1)	(-1,65)	(6,8)	(27,2)	(-7,10)	(-9,5)	(-14,24)	(-28,8)	(2,26)	
L2C 13>	(-12,18)	(-4,21)	(1,242)	(-20,25)	(22,14)	(35,1)	(-1,154)	(-18,4)	(-2,20)	(-5,53)	(3,15)	(-17,19)	(-8,9)	(-15,14)	(-3,35)	(-10,42)	
L2C 14>	(0,13)	(-6,1)	(1,184)	(-13,91)	(-3,100)	(27,66)	(2,27)	(-1,26)	(-2,27)	(3,25)	(-12,6)	(-15,18)	(5,7)	(-14,20)	(-4,19)	(-20,43)	
L2C 15>	(4,5)	(-1,212)	(-14,27)	(3,10)	(-10,12)	(-8,11)	(0,13)	(-4,29)	(1,137)	(-7,1)	(6,4)	(-16,25)	(-11,10)	(17,4)	(2,10)	(-32,3)	
L2C 16>	(1,232)	(3,23)	(-13,16)	(-4,26)	(-1,76)	(2,79)	(15,1)	(-5,15)	(-16,138)	(-14,26)	(-20,12)	(-18,52)	(-15,22)	(-17,19)	(12,28)	(0,38)	
L2C 17>	(3,18)	(-16,45)	(1,191)	(-41,1)	(-13,26)	(-3,45)	(0,16)	(-1,47)	(-14,21)	(-20,36)	(-10,11)	(-19,7)	(-32,3)	(-17,9)	(-5,11)	(-30,2)	
L2C 18>	(-2,2)	(-17,208)	(-16,27)	(-1,26)	(1,18)	(-3,9)	(-4,4)	(6,2)	(-28,3)	(-42,34)	(2,2)	(-14,1)	(-7,4)	(3,2)	(-10,2)	(-20,3)	
L2C 19>	(1,163)	(-16,16)	(2,37)	(-1,141)	(-2,17)	(-18,122)	(-23,5)	(-5,10)	(-4,12)	(-14,6)	(-3,29)	(-17,22)	(24,1)	(-6,5)	(-25,4)	(0,5)	
L2C 20>	(1,129)	(-18,95)	(-16,26)	(-8,4)	(-2,73)	(-1,55)	(-33,1)	(-17,100)	(0,7)	(-19,34)	(6,6)	(2,19)	(-24,10)	(-13,9)	(12,4)	(-4,12)	
L2C 21>	(1,218)	(-22,12)	(3,46)	(25,31)	(-3,209)	(-23,43)	(-4,79)	(15,74)	(-7,98)	(4,26)	(7,1)	(40,11)	(-2,64)	(-31,10)	(-28,5)	(-1,62)	
L2C 22>	(1,108)	(-1,111)	(-16,5)	(-3,33)	(20,1)	(-19,18)	(-18,228)	(3,14)	(-17,15)	(-5,7)	(-26,14)	(-21,19)	(-24,4)	(-34,4)	(-41,2)	(-27,6)	
L2C 23>	(1,195)	(-29,17)	(-10,7)	(-15,6)	(10,4)	(3,9)	(-4,11)	(-1,53)	(2,46)	(-24,18)	(-31,5)	(-6,1)	(23,2)	(15,5)	(-2,30)	(-5,10)	
L2C 24>	(2,9)	(1,81)	(-22,9)	(-1,50)	(15,27)	(-2,16)	(-25,10)	(-5,6)	(7,13)	(-3,160)	(-19,5)	(-33,1)	(-30,2)	(17,3)	(-32,7)	(3,10)	
L2C 25>	(1,185)	(15,81)	(-1,86)	(-4,115)	(6,12)	(13,12)	(-25,19)	(-2,28)	(-20,6)	(-8,18)	(-17,24)	(-7,100)	(3,63)	(-3,46)	(0,1)	(-10,35)	
L2C 26>	(-23,5)	(1,215)	(-18,72)	(21,6)	(3,26)	(11,68)	(-25,1)	(-27,23)	(-2,17)	(-1,72)	(-24,8)	(4,7)	(-17,31)	(-4,30)	(-8,9)	(2,21)	
L2C 27>	(1,147)	(-24,13)	(-26,52)	(4,12)	(-3,167)	(-32,1)	(3,14)	(-6,8)	(-12,10)	(-1,84)	(-41,7)	(-29,10)	(-18,8)	(2,39)	(-2,25)	(8,5)	
L2C 28>	(1,251)	(-26,7)	(-1,29)	(-28,23)	(-4,94)	(-3,227)	(4,24)	(3,99)	(17,8)	(-5,10)	(-27,27)	(-7,122)	(10,34)	(2,2)	(-14,7)	(7,53)	
L2C 29>	(-1,41)	(-30,1)	(-8,17)	(1,141)	(-18,12)	(2,15)	(-12,9)	(-11,19)	(-4,72)	(-3,9)	(-2,13)	(-10,13)	(-28,18)	(-32,4)	(-5,12)	(-33,6)	
L2C 30>	(-1,223)	(3,26)	(-22,6)	(-33,13)	(1,151)	(-31,142)	(-28,9)	(-32,47)	(2,35)	(-17,6)	(-2,1)	(-11,5)	(-34,3)	(-29,13)	(-4,7)	(-15,4)	
L2C 31>	(-10,55)	(-3,254)	(1,142)	(31,161)	(-1,201)	(10,46)	(32,41)	(7,46)	(2,12)	(-30,14)	(-22,5)	(3,96)	(4,23)	(-11,1)	(-32,8)	(-7,181)	
L2C 32>	(1,131)	(2,41)	(-29,9)	(15,4)	(-16,15)	(-18,7)	(-7,26)	(-31,11)	(-1,83)	(-32,37)	(-4,81)	(-24,8)	(3,38)	(-30,6)	(-8,3)	(0,1)	
L2C 33>	(1,180)	(-33,12)	(3,23)	(-44,8)	(-35,4)	(-16,9)	(2,25)	(-2,19)	(4,5)	(-39,88)	(-31,6)	(-32,9)	(-1,51)	(0,1)	(-20,6)	(-34,10)	
L2C 34>	(1,141)	(2,31)	(-33,14)	(-1,222)	(-44,6)	(7,35)	(4,19)	(-39,48)	(3,10)	(-25,8)	(-3,121)	(-29,15)	(-37,6)	(0,1)	(-9,4)	(-10,40)	
L2C 35>	(-32,3)	(-1,130)	(1,193)	(2,18)	(10,23)	(-4,26)	(3,71)	(-27,7)	(-3,28)	(-33,4)	(-17,21)	(13,13)	(-36,1)	(-7,154)	(-2,18)	(-10,31)	
L2C 36>	(1,138)	(-30,5)	(-3,1)	(-36,24)	(-1,62)	(-29,9)	(2,18)	(3,12)	(0,6)	(-5,4)	(-41,5)	(-43,2)	(-22,5)	(-18,3)	(-34,4)	(-16,12)	
L2C 37>	(-7,7)	(-16,3)	(1,146)	(2,32)	(-3,20)	(-13,9)	(4,9)	(-1,9)	(-43,1)	(-31,32)	(3,17)	(-38,10)	(-32,3)	(-46,2)	(-6,3)	(7,2)	
L2C 38>	(3,105)	(-14,22)	(1,56)	(-39,15)	(2,16)	(-1,32)	(7,49)	(-4,47)	(10,12)	(-17,24)	(-55,1)	(-41,6)	(4,12)	(-10,110)	(-7,177)	(-3,147)	
L2C 39>	(1,66)	(-1,99)	(17,7)	(-42,11)	(-39,11)	(-41,6)	(10,2)	(-53,3)	(-55,4)	(2,18)	(-40,3)	(11,4)	(-6,3)	(-31,2)	(-3,1)	(-20,1)	
L2C 40>	(-16,4)	(-1,172)	(1,104)	(-6,3)	(0,3)	(-36,3)	(-24,1)	(2,4)	(-42,7)	(-46,1)	(9,1)	(-21,1)	(3,13)	(-34,3)	(-41,8)	(-32,1)	
L2C 41>	(-3,246)	(-7,64)	(-10,63)	(-17,14)	(0,5)	(-24,1)	(1,59)	(-13,25)	(4,17)	(-42,15)	(-34,3)	(-23,4)	(3,16)	(-1,28)	(-20,11)	(13,7)	
L2C 42>	(-10,22)	(1,64)	(-2,13)	(-1,18)	(-19,8)	(0,13)	(-17,11)	(-14,34)	(-41,17)	(-42,5)	(2,4)	(-29,1)	(3,49)	(-4,32)	(-43,21)	(-7,69)	
L2C 43>	(1,94)	(-4,2)	(0,3)	(-17,4)	(-2,5)	(-44,12)	(-42,8)	(-3,1)	(-21,4)	(-1,22)	(-13,4)	(-29,3)	(-47,3)	(-20,4)	(-22,2)	(-43,9)	
L2C 44>	(-1,13)	(2,11)	(-4,3)	(-43,6)	(0,15)	(1,52)	(-14,4)	(3,1)	(-45,2)	(-31,2)	(4,8)	(-25,3)	(-13,10)	(-20,13)	(-3,44)	(-10,20)	
L2C 45>	(1,40)	(2,12)	(3,25)	(-1,1)	(-4,51)	(-43,4)	(-38,5)	(-3,96)	(-7,176)	(-10,93)	(-17,61)	(-24,13)	(-60,1)	(-14,36)	(-20,11)	(-13,17)	
L2C 46>	(-42,4)	(15,83)	(-47,4)	(1,58)	(-45,8)	(-1,11)	(-44,3)	(-2,2)	(2,1)	(-48,4)	(-37,2)	(-39,4)	(10,1)	(-33,2)	(-30,3)	(-24,3)	
L2C 47>	(-54,4)	(1,39)	(-1,13)	(-43,4)	(-26,3)	(-46,5)	(-47,1)	(-17,2)	(-53,2)	(2,6)	(-3,2)	(-45,3)	(10,2)	(15,43)	(-15,2)	(-25,2)	
L2C 48>	(-50,12)	(-54,46)	(-1,93)	(1,44)	(-51,7)	(-47,9)	(-23,1)	(-48,25)	(-52,11)	(-20,18)	(-7,66)	(-13,9)	(-3,36)	(15,24)	(-10,30)	(-17,25)	
L2C 49>	(-51,3)	(1,55)	(-26,1)	(-48,11)	(-49,3)	(-27,2)	(2,6)	(-17,4)	(-21,3)	(-1,9)	(-14,2)	(-33,2)	(4,1)	(-40,1)	(-50,2)	(-3,2)	
L2C 50>	(1,49)	(-26,1)	(2,14)	(0,7)	(-50,9)	(-51,4)	(-1,16)	(-48,7)	(-49,9)	(-17,1)	(-33,4)	(13,32)	(-56,2)	(-3,5)	(-55,7)	(-44,3)	
L2C 51>	(1,56)	(-49,1)	(-50,7)	(-21,2)	(-33,10)	(-7,2)	(-41,3)	(-1,14)	(2,6)	(-44,3)	(-53,5)	(-2,6)	(-17,2)	(-3,3)	(-51,12)	(-37,4)	
L2C 52>	(-26,74)	(1,41)	(-53,97)	(-55,4)	(-15,92)	(-43,3)	(-14,19)	(-51,2)	(-41,2)	(-33,1)	(-45,1)	(-17,2)	(10,28)	(-46,1)	(-4,2)	(-1,19)	
L2C 53>	(-44,3)	(-54,7)	(-1,6)	(-52,6)	(1,28)	(-59,1)	(-53,12)	(-51,6)	(-45,3)	(-2,2)	(-11,1)	(-41,4)	(-22,3)	(-60,5)	(2,4)	(-49,4)	
L2C 54>	(-22,1)	(1,17)	(-28,1)	(4,2)	(-54,1)	(-1,15)	(-45,2)	(0,6)	(-24,1)	(-27,1)	(-52,2)	(-29,1)	(-21,3)	(-14,1)	(-42,6)	(-41,3)	
L2C 55>	(-55,33)	(-50,2)	(0,48)	(1,24)	(-30,1)	(-25,1)	(-23,2)	(-51,2)	(-57,6)	(-42,2)	(-58,3)	(-41,10)	(2,1)	(-54,2)	(-1,7)	(-11,2)	
L2C 56>	(1,18)	(-30,1)	(-44,2)	(-26,1)	(-57,2)	(-1,4)	(-24,1)	(-48,1)	(-51,1)	(-2,3)	(-42,1)	(-50,1)	(-18,1)	(-6,1)	(-3,1)	(-4,1)	
L2C 57>	(1,18)	(3,2)	(-54,1)	(-1,4)	(-43,1)	(-53,2)	(-8,2)	(0,1)	(-26,1)	(-59,1)	(-25,2)	(-6,1)	(-58,1)	(-33,1)	(-57,2)	(-13,1)	
L2C 58>	(1,7)	(-6,1)	(3,1)	(-1,6)	(-23,1)	(-53,3)	(-2,1)	(-10,1)	(-26,1)	(-33,1)	(-60,1)	(0,1)	(-39,1)	(1,0)	(1,0)	(1,0)	
L2C 59>	(-1,9)	(-61,1)	(-59,6)	(-2,2)	(-27,6)	(-43,3)	(2,3)	(1,13)	(-4,3)	(-8,5)	(-42,3)	(-49,3)	(-37,1)	(-17,3)	(-53,1)	(-30,1)	
L2C 60>	(-1,15)	(1,7)	(-53,3)	(-5,1)	(-47,1)	(-30,1)	(-17,1)	(-28,1)	(-57,1)	(-26,2)	(-54,1)	(-49,2)	(-11,1)	(-16,1)	(-3,1)	(-52,2)	
L2C 61>	(-1,58)	(1,1)	(-60,2)	(-25,1)	(-48,1)	(-31,1)	(-4,1)	(-2,1)	(-6,1)	(1,0)	(1,0)	(1,0)	(1,0)	(1,0)	(1,0)	(1,0)	
L2C 62>	(-1,195)	(-2,2)	(-18,1)	(-26,0)	(1,0)	(1,0)	(1,0)	(1,0)	(1,0)	(1,0)	(1,0)	(1,0)	(1,0)	(1,0)	(1,0)	(1,0)	
L2C 63>	(-1,231)	(-61,1)	(-45,1)	(-52,0)	(1,0)	(1,0)	(1,0)	(1,0)	(1,0)	(1,0)	(1,0)	(1,0)	(1,0)	(1,0)	(1,0)	(1,0)	

DRAM Statistics
 CHANNEL 0
 RQ ROW_BUFFER_HIT:     451913  ROW_BUFFER_MISS:     854055
 DBUS_CONGESTED:     598070
 WQ ROW_BUFFER_HIT:       6902  ROW_BUFFER_MISS:     101311  FULL:          0

 AVG_CONGESTED_CYCLE: 6
