
*** ChampSim Multicore Out-of-Order Simulator ***

Warmup Instructions: 1000000
Simulation Instructions: 10000000
Number of CPUs: 4
LLC sets: 8192
LLC ways: 16
Off-chip DRAM Size: 4096 MB Channels: 1 Width: 64-bit Data Rate: 3200 MT/s

CPU 0 runs /home/virtualcse/Data-Prefetching/ChampSim/dpc3_traces/648.exchange2_s-1699B.champsimtrace.xz
CPU 1 runs /home/virtualcse/Data-Prefetching/ChampSim/dpc3_traces/603.bwaves_s-1080B.champsimtrace.xz
CPU 2 runs /home/virtualcse/Data-Prefetching/ChampSim/dpc3_traces/607.cactuBSSN_s-2421B.champsimtrace.xz
CPU 3 runs /home/virtualcse/Data-Prefetching/ChampSim/dpc3_traces/649.fotonik3d_s-8225B.champsimtrace.xz
Ultra pref. initializing...
Ultra pref. initialized
Ultra pref. initializing...
Ultra pref. initialized
Ultra pref. initializing...
Ultra pref. initialized
Ultra pref. initializing...
Ultra pref. initialized
Ultra pref. initializing...
Ultra pref. initialized
Ultra pref. initializing...
Ultra pref. initialized
Ultra pref. initializing...
Ultra pref. initialized
Ultra pref. initializing...
Ultra pref. initialized

Warmup complete CPU 0 instructions: 1571452 cycles: 481490 (Simulation time: 0 hr 0 min 10 sec) 
Warmup complete CPU 1 instructions: 1400298 cycles: 481490 (Simulation time: 0 hr 0 min 10 sec) 
Warmup complete CPU 2 instructions: 1000001 cycles: 481490 (Simulation time: 0 hr 0 min 10 sec) 
Warmup complete CPU 3 instructions: 1189421 cycles: 481489 (Simulation time: 0 hr 0 min 10 sec) 

Heartbeat CPU 0 instructions: 10000001 cycles: 4064582 heartbeat IPC: 2.46028 cumulative IPC: 2.35231 (Simulation time: 0 hr 0 min 52 sec) 
Heartbeat CPU 1 instructions: 10000001 cycles: 4603173 heartbeat IPC: 2.17241 cumulative IPC: 2.08645 (Simulation time: 0 hr 0 min 58 sec) 
Finished CPU 0 instructions: 10000002 cycles: 4251186 cumulative IPC: 2.35229 (Simulation time: 0 hr 1 min 0 sec) 
Finished CPU 1 instructions: 10000001 cycles: 4876751 cumulative IPC: 2.05055 (Simulation time: 0 hr 1 min 6 sec) 
Heartbeat CPU 3 instructions: 10000003 cycles: 5725546 heartbeat IPC: 1.74656 cumulative IPC: 1.68011 (Simulation time: 0 hr 1 min 10 sec) 
Finished CPU 3 instructions: 10000001 cycles: 6897128 cumulative IPC: 1.44988 (Simulation time: 0 hr 1 min 26 sec) 
Heartbeat CPU 2 instructions: 10000001 cycles: 8109774 heartbeat IPC: 1.23308 cumulative IPC: 1.17982 (Simulation time: 0 hr 1 min 33 sec) 
Heartbeat CPU 0 instructions: 20000000 cycles: 8256608 heartbeat IPC: 2.38548 cumulative IPC: 2.3702 (Simulation time: 0 hr 1 min 34 sec) 
Finished CPU 2 instructions: 10000000 cycles: 8510588 cumulative IPC: 1.17501 (Simulation time: 0 hr 1 min 42 sec) 

CPU 0 Branch Prediction Accuracy: 97.2735% MPKI: 3.57828 Average ROB Occupancy at Mispredict: 49.915

CPU 1 Branch Prediction Accuracy: 94.802% MPKI: 5.47968 Average ROB Occupancy at Mispredict: 83.0875

CPU 2 Branch Prediction Accuracy: 99.5557% MPKI: 0.0307 Average ROB Occupancy at Mispredict: 18.2932

CPU 3 Branch Prediction Accuracy: 99.9747% MPKI: 0.00436711 Average ROB Occupancy at Mispredict: 341.66

ChampSim completed all CPUs

Total Simulation Statistics (not including warmup)

CPU 0 cumulative IPC: 2.37269 instructions: 20193018 cycles: 8510588
L1D TOTAL     ACCESS:    6844057  HIT:    6843995  MISS:         62
L1D LOAD      ACCESS:    2355406  HIT:    2355401  MISS:          5
L1D RFO       ACCESS:    2961813  HIT:    2961786  MISS:         27
L1D PREFETCH  ACCESS:    1526838  HIT:    1526808  MISS:         30
L1D WRITEBACK ACCESS:          0  HIT:          0  MISS:          0
L1I TOTAL     ACCESS:    1365617  HIT:    1365617  MISS:          0
L1I LOAD      ACCESS:    1365617  HIT:    1365617  MISS:          0
L1I RFO       ACCESS:          0  HIT:          0  MISS:          0
L1I PREFETCH  ACCESS:          0  HIT:          0  MISS:          0
L1I WRITEBACK ACCESS:          0  HIT:          0  MISS:          0
L2C TOTAL     ACCESS:        120  HIT:         71  MISS:         49
L2C LOAD      ACCESS:          5  HIT:          4  MISS:          1
L2C RFO       ACCESS:         27  HIT:          9  MISS:         18
L2C PREFETCH  ACCESS:         88  HIT:         58  MISS:         30
L2C WRITEBACK ACCESS:          0  HIT:          0  MISS:          0

L1D -512>	(1,122)	(50,88)	(7,43)	(6,67)	(0,32)	(2,81)	(3,65)	(25,17)	(56,1)	(-138,1)	(75,14)	(4,54)	(5,37)	(125,7)	(8,22)	(100,5)	
L1D -511>	(1,25)	(0,28)	(2,47)	(4,6)	(3,9)	(1,0)	(1,0)	(1,0)	(1,0)	(1,0)	(1,0)	(1,0)	(1,0)	(1,0)	(1,0)	(1,0)	
L1D -510>	(1,17)	(0,35)	(2,78)	(4,12)	(3,4)	(1,0)	(1,0)	(1,0)	(1,0)	(1,0)	(1,0)	(1,0)	(1,0)	(1,0)	(1,0)	(1,0)	
L1D -509>	(0,1)	(1,0)	(1,0)	(1,0)	(1,0)	(1,0)	(1,0)	(1,0)	(1,0)	(1,0)	(1,0)	(1,0)	(1,0)	(1,0)	(1,0)	(1,0)	
L1D -508>	(3,11)	(2,46)	(0,5)	(1,2)	(1,0)	(1,0)	(1,0)	(1,0)	(1,0)	(1,0)	(1,0)	(1,0)	(1,0)	(1,0)	(1,0)	(1,0)	
L1D -507>	(1,0)	(1,0)	(1,0)	(1,0)	(1,0)	(1,0)	(1,0)	(1,0)	(1,0)	(1,0)	(1,0)	(1,0)	(1,0)	(1,0)	(1,0)	(1,0)	
L1D -506>	(1,0)	(1,0)	(1,0)	(1,0)	(1,0)	(1,0)	(1,0)	(1,0)	(1,0)	(1,0)	(1,0)	(1,0)	(1,0)	(1,0)	(1,0)	(1,0)	
L1D -505>	(2,1)	(1,0)	(1,0)	(1,0)	(1,0)	(1,0)	(1,0)	(1,0)	(1,0)	(1,0)	(1,0)	(1,0)	(1,0)	(1,0)	(1,0)	(1,0)	
L1D -504>	(1,0)	(1,0)	(1,0)	(1,0)	(1,0)	(1,0)	(1,0)	(1,0)	(1,0)	(1,0)	(1,0)	(1,0)	(1,0)	(1,0)	(1,0)	(1,0)	
L1D -503>	(1,0)	(1,0)	(1,0)	(1,0)	(1,0)	(1,0)	(1,0)	(1,0)	(1,0)	(1,0)	(1,0)	(1,0)	(1,0)	(1,0)	(1,0)	(1,0)	
L1D -502>	(1,0)	(1,0)	(1,0)	(1,0)	(1,0)	(1,0)	(1,0)	(1,0)	(1,0)	(1,0)	(1,0)	(1,0)	(1,0)	(1,0)	(1,0)	(1,0)	
L1D -501>	(1,0)	(1,0)	(1,0)	(1,0)	(1,0)	(1,0)	(1,0)	(1,0)	(1,0)	(1,0)	(1,0)	(1,0)	(1,0)	(1,0)	(1,0)	(1,0)	
L1D -500>	(1,0)	(1,0)	(1,0)	(1,0)	(1,0)	(1,0)	(1,0)	(1,0)	(1,0)	(1,0)	(1,0)	(1,0)	(1,0)	(1,0)	(1,0)	(1,0)	
L1D -499>	(1,0)	(1,0)	(1,0)	(1,0)	(1,0)	(1,0)	(1,0)	(1,0)	(1,0)	(1,0)	(1,0)	(1,0)	(1,0)	(1,0)	(1,0)	(1,0)	
L1D -498>	(1,0)	(1,0)	(1,0)	(1,0)	(1,0)	(1,0)	(1,0)	(1,0)	(1,0)	(1,0)	(1,0)	(1,0)	(1,0)	(1,0)	(1,0)	(1,0)	
L1D -497>	(1,0)	(1,0)	(1,0)	(1,0)	(1,0)	(1,0)	(1,0)	(1,0)	(1,0)	(1,0)	(1,0)	(1,0)	(1,0)	(1,0)	(1,0)	(1,0)	
L1D -496>	(1,0)	(1,0)	(1,0)	(1,0)	(1,0)	(1,0)	(1,0)	(1,0)	(1,0)	(1,0)	(1,0)	(1,0)	(1,0)	(1,0)	(1,0)	(1,0)	
L1D -495>	(2,1)	(1,0)	(1,0)	(1,0)	(1,0)	(1,0)	(1,0)	(1,0)	(1,0)	(1,0)	(1,0)	(1,0)	(1,0)	(1,0)	(1,0)	(1,0)	
L1D -494>	(1,0)	(1,0)	(1,0)	(1,0)	(1,0)	(1,0)	(1,0)	(1,0)	(1,0)	(1,0)	(1,0)	(1,0)	(1,0)	(1,0)	(1,0)	(1,0)	
L1D -493>	(1,0)	(1,0)	(1,0)	(1,0)	(1,0)	(1,0)	(1,0)	(1,0)	(1,0)	(1,0)	(1,0)	(1,0)	(1,0)	(1,0)	(1,0)	(1,0)	
L1D -492>	(1,0)	(1,0)	(1,0)	(1,0)	(1,0)	(1,0)	(1,0)	(1,0)	(1,0)	(1,0)	(1,0)	(1,0)	(1,0)	(1,0)	(1,0)	(1,0)	
L1D -491>	(1,0)	(1,0)	(1,0)	(1,0)	(1,0)	(1,0)	(1,0)	(1,0)	(1,0)	(1,0)	(1,0)	(1,0)	(1,0)	(1,0)	(1,0)	(1,0)	
L1D -490>	(1,0)	(1,0)	(1,0)	(1,0)	(1,0)	(1,0)	(1,0)	(1,0)	(1,0)	(1,0)	(1,0)	(1,0)	(1,0)	(1,0)	(1,0)	(1,0)	
L1D -489>	(1,0)	(1,0)	(1,0)	(1,0)	(1,0)	(1,0)	(1,0)	(1,0)	(1,0)	(1,0)	(1,0)	(1,0)	(1,0)	(1,0)	(1,0)	(1,0)	
L1D -488>	(1,0)	(1,0)	(1,0)	(1,0)	(1,0)	(1,0)	(1,0)	(1,0)	(1,0)	(1,0)	(1,0)	(1,0)	(1,0)	(1,0)	(1,0)	(1,0)	
L1D -487>	(1,0)	(1,0)	(1,0)	(1,0)	(1,0)	(1,0)	(1,0)	(1,0)	(1,0)	(1,0)	(1,0)	(1,0)	(1,0)	(1,0)	(1,0)	(1,0)	
L1D -486>	(1,0)	(1,0)	(1,0)	(1,0)	(1,0)	(1,0)	(1,0)	(1,0)	(1,0)	(1,0)	(1,0)	(1,0)	(1,0)	(1,0)	(1,0)	(1,0)	
L1D -485>	(1,0)	(1,0)	(1,0)	(1,0)	(1,0)	(1,0)	(1,0)	(1,0)	(1,0)	(1,0)	(1,0)	(1,0)	(1,0)	(1,0)	(1,0)	(1,0)	
L1D -484>	(1,0)	(1,0)	(1,0)	(1,0)	(1,0)	(1,0)	(1,0)	(1,0)	(1,0)	(1,0)	(1,0)	(1,0)	(1,0)	(1,0)	(1,0)	(1,0)	
L1D -483>	(1,0)	(1,0)	(1,0)	(1,0)	(1,0)	(1,0)	(1,0)	(1,0)	(1,0)	(1,0)	(1,0)	(1,0)	(1,0)	(1,0)	(1,0)	(1,0)	
L1D -482>	(1,0)	(1,0)	(1,0)	(1,0)	(1,0)	(1,0)	(1,0)	(1,0)	(1,0)	(1,0)	(1,0)	(1,0)	(1,0)	(1,0)	(1,0)	(1,0)	
L1D -481>	(1,0)	(1,0)	(1,0)	(1,0)	(1,0)	(1,0)	(1,0)	(1,0)	(1,0)	(1,0)	(1,0)	(1,0)	(1,0)	(1,0)	(1,0)	(1,0)	
L1D -480>	(1,0)	(1,0)	(1,0)	(1,0)	(1,0)	(1,0)	(1,0)	(1,0)	(1,0)	(1,0)	(1,0)	(1,0)	(1,0)	(1,0)	(1,0)	(1,0)	
L1D -479>	(1,0)	(1,0)	(1,0)	(1,0)	(1,0)	(1,0)	(1,0)	(1,0)	(1,0)	(1,0)	(1,0)	(1,0)	(1,0)	(1,0)	(1,0)	(1,0)	
L1D -478>	(1,0)	(1,0)	(1,0)	(1,0)	(1,0)	(1,0)	(1,0)	(1,0)	(1,0)	(1,0)	(1,0)	(1,0)	(1,0)	(1,0)	(1,0)	(1,0)	
L1D -477>	(1,0)	(1,0)	(1,0)	(1,0)	(1,0)	(1,0)	(1,0)	(1,0)	(1,0)	(1,0)	(1,0)	(1,0)	(1,0)	(1,0)	(1,0)	(1,0)	
L1D -476>	(1,0)	(1,0)	(1,0)	(1,0)	(1,0)	(1,0)	(1,0)	(1,0)	(1,0)	(1,0)	(1,0)	(1,0)	(1,0)	(1,0)	(1,0)	(1,0)	
L1D -475>	(1,0)	(1,0)	(1,0)	(1,0)	(1,0)	(1,0)	(1,0)	(1,0)	(1,0)	(1,0)	(1,0)	(1,0)	(1,0)	(1,0)	(1,0)	(1,0)	
L1D -474>	(1,0)	(1,0)	(1,0)	(1,0)	(1,0)	(1,0)	(1,0)	(1,0)	(1,0)	(1,0)	(1,0)	(1,0)	(1,0)	(1,0)	(1,0)	(1,0)	
L1D -473>	(1,0)	(1,0)	(1,0)	(1,0)	(1,0)	(1,0)	(1,0)	(1,0)	(1,0)	(1,0)	(1,0)	(1,0)	(1,0)	(1,0)	(1,0)	(1,0)	
L1D -472>	(1,0)	(1,0)	(1,0)	(1,0)	(1,0)	(1,0)	(1,0)	(1,0)	(1,0)	(1,0)	(1,0)	(1,0)	(1,0)	(1,0)	(1,0)	(1,0)	
L1D -471>	(1,0)	(1,0)	(1,0)	(1,0)	(1,0)	(1,0)	(1,0)	(1,0)	(1,0)	(1,0)	(1,0)	(1,0)	(1,0)	(1,0)	(1,0)	(1,0)	
L1D -470>	(2,1)	(1,0)	(1,0)	(1,0)	(1,0)	(1,0)	(1,0)	(1,0)	(1,0)	(1,0)	(1,0)	(1,0)	(1,0)	(1,0)	(1,0)	(1,0)	
L1D -469>	(1,0)	(1,0)	(1,0)	(1,0)	(1,0)	(1,0)	(1,0)	(1,0)	(1,0)	(1,0)	(1,0)	(1,0)	(1,0)	(1,0)	(1,0)	(1,0)	
L1D -468>	(1,0)	(1,0)	(1,0)	(1,0)	(1,0)	(1,0)	(1,0)	(1,0)	(1,0)	(1,0)	(1,0)	(1,0)	(1,0)	(1,0)	(1,0)	(1,0)	
L1D -467>	(1,0)	(1,0)	(1,0)	(1,0)	(1,0)	(1,0)	(1,0)	(1,0)	(1,0)	(1,0)	(1,0)	(1,0)	(1,0)	(1,0)	(1,0)	(1,0)	
L1D -466>	(1,0)	(1,0)	(1,0)	(1,0)	(1,0)	(1,0)	(1,0)	(1,0)	(1,0)	(1,0)	(1,0)	(1,0)	(1,0)	(1,0)	(1,0)	(1,0)	
L1D -465>	(2,1)	(1,0)	(1,0)	(1,0)	(1,0)	(1,0)	(1,0)	(1,0)	(1,0)	(1,0)	(1,0)	(1,0)	(1,0)	(1,0)	(1,0)	(1,0)	
L1D -464>	(1,0)	(1,0)	(1,0)	(1,0)	(1,0)	(1,0)	(1,0)	(1,0)	(1,0)	(1,0)	(1,0)	(1,0)	(1,0)	(1,0)	(1,0)	(1,0)	
L1D -463>	(1,0)	(1,0)	(1,0)	(1,0)	(1,0)	(1,0)	(1,0)	(1,0)	(1,0)	(1,0)	(1,0)	(1,0)	(1,0)	(1,0)	(1,0)	(1,0)	
L1D -462>	(1,0)	(1,0)	(1,0)	(1,0)	(1,0)	(1,0)	(1,0)	(1,0)	(1,0)	(1,0)	(1,0)	(1,0)	(1,0)	(1,0)	(1,0)	(1,0)	
L1D -461>	(1,0)	(1,0)	(1,0)	(1,0)	(1,0)	(1,0)	(1,0)	(1,0)	(1,0)	(1,0)	(1,0)	(1,0)	(1,0)	(1,0)	(1,0)	(1,0)	
L1D -460>	(1,0)	(1,0)	(1,0)	(1,0)	(1,0)	(1,0)	(1,0)	(1,0)	(1,0)	(1,0)	(1,0)	(1,0)	(1,0)	(1,0)	(1,0)	(1,0)	
L1D -459>	(1,0)	(1,0)	(1,0)	(1,0)	(1,0)	(1,0)	(1,0)	(1,0)	(1,0)	(1,0)	(1,0)	(1,0)	(1,0)	(1,0)	(1,0)	(1,0)	
L1D -458>	(1,0)	(1,0)	(1,0)	(1,0)	(1,0)	(1,0)	(1,0)	(1,0)	(1,0)	(1,0)	(1,0)	(1,0)	(1,0)	(1,0)	(1,0)	(1,0)	
L1D -457>	(1,0)	(1,0)	(1,0)	(1,0)	(1,0)	(1,0)	(1,0)	(1,0)	(1,0)	(1,0)	(1,0)	(1,0)	(1,0)	(1,0)	(1,0)	(1,0)	
L1D -456>	(1,0)	(1,0)	(1,0)	(1,0)	(1,0)	(1,0)	(1,0)	(1,0)	(1,0)	(1,0)	(1,0)	(1,0)	(1,0)	(1,0)	(1,0)	(1,0)	
L1D -455>	(2,1)	(1,0)	(1,0)	(1,0)	(1,0)	(1,0)	(1,0)	(1,0)	(1,0)	(1,0)	(1,0)	(1,0)	(1,0)	(1,0)	(1,0)	(1,0)	
L1D -454>	(1,0)	(1,0)	(1,0)	(1,0)	(1,0)	(1,0)	(1,0)	(1,0)	(1,0)	(1,0)	(1,0)	(1,0)	(1,0)	(1,0)	(1,0)	(1,0)	
L1D -453>	(1,0)	(1,0)	(1,0)	(1,0)	(1,0)	(1,0)	(1,0)	(1,0)	(1,0)	(1,0)	(1,0)	(1,0)	(1,0)	(1,0)	(1,0)	(1,0)	
L1D -452>	(1,0)	(1,0)	(1,0)	(1,0)	(1,0)	(1,0)	(1,0)	(1,0)	(1,0)	(1,0)	(1,0)	(1,0)	(1,0)	(1,0)	(1,0)	(1,0)	
L1D -451>	(1,0)	(1,0)	(1,0)	(1,0)	(1,0)	(1,0)	(1,0)	(1,0)	(1,0)	(1,0)	(1,0)	(1,0)	(1,0)	(1,0)	(1,0)	(1,0)	
L1D -450>	(1,0)	(1,0)	(1,0)	(1,0)	(1,0)	(1,0)	(1,0)	(1,0)	(1,0)	(1,0)	(1,0)	(1,0)	(1,0)	(1,0)	(1,0)	(1,0)	
L1D -449>	(2,1)	(1,0)	(1,0)	(1,0)	(1,0)	(1,0)	(1,0)	(1,0)	(1,0)	(1,0)	(1,0)	(1,0)	(1,0)	(1,0)	(1,0)	(1,0)	
L1D -448>	(1,0)	(1,0)	(1,0)	(1,0)	(1,0)	(1,0)	(1,0)	(1,0)	(1,0)	(1,0)	(1,0)	(1,0)	(1,0)	(1,0)	(1,0)	(1,0)	
L1D -447>	(1,0)	(1,0)	(1,0)	(1,0)	(1,0)	(1,0)	(1,0)	(1,0)	(1,0)	(1,0)	(1,0)	(1,0)	(1,0)	(1,0)	(1,0)	(1,0)	
L1D -446>	(1,0)	(1,0)	(1,0)	(1,0)	(1,0)	(1,0)	(1,0)	(1,0)	(1,0)	(1,0)	(1,0)	(1,0)	(1,0)	(1,0)	(1,0)	(1,0)	
L1D -445>	(1,0)	(1,0)	(1,0)	(1,0)	(1,0)	(1,0)	(1,0)	(1,0)	(1,0)	(1,0)	(1,0)	(1,0)	(1,0)	(1,0)	(1,0)	(1,0)	
L1D -444>	(1,0)	(1,0)	(1,0)	(1,0)	(1,0)	(1,0)	(1,0)	(1,0)	(1,0)	(1,0)	(1,0)	(1,0)	(1,0)	(1,0)	(1,0)	(1,0)	
L1D -443>	(1,0)	(1,0)	(1,0)	(1,0)	(1,0)	(1,0)	(1,0)	(1,0)	(1,0)	(1,0)	(1,0)	(1,0)	(1,0)	(1,0)	(1,0)	(1,0)	
L1D -442>	(1,0)	(1,0)	(1,0)	(1,0)	(1,0)	(1,0)	(1,0)	(1,0)	(1,0)	(1,0)	(1,0)	(1,0)	(1,0)	(1,0)	(1,0)	(1,0)	
L1D -441>	(-1,1)	(1,0)	(1,0)	(1,0)	(1,0)	(1,0)	(1,0)	(1,0)	(1,0)	(1,0)	(1,0)	(1,0)	(1,0)	(1,0)	(1,0)	(1,0)	
L1D -440>	(2,1)	(1,0)	(1,0)	(1,0)	(1,0)	(1,0)	(1,0)	(1,0)	(1,0)	(1,0)	(1,0)	(1,0)	(1,0)	(1,0)	(1,0)	(1,0)	
L1D -439>	(1,0)	(1,0)	(1,0)	(1,0)	(1,0)	(1,0)	(1,0)	(1,0)	(1,0)	(1,0)	(1,0)	(1,0)	(1,0)	(1,0)	(1,0)	(1,0)	
L1D -438>	(1,0)	(1,0)	(1,0)	(1,0)	(1,0)	(1,0)	(1,0)	(1,0)	(1,0)	(1,0)	(1,0)	(1,0)	(1,0)	(1,0)	(1,0)	(1,0)	
L1D -437>	(1,0)	(1,0)	(1,0)	(1,0)	(1,0)	(1,0)	(1,0)	(1,0)	(1,0)	(1,0)	(1,0)	(1,0)	(1,0)	(1,0)	(1,0)	(1,0)	
L1D -436>	(436,1)	(1,0)	(1,0)	(1,0)	(1,0)	(1,0)	(1,0)	(1,0)	(1,0)	(1,0)	(1,0)	(1,0)	(1,0)	(1,0)	(1,0)	(1,0)	
L1D -435>	(1,0)	(1,0)	(1,0)	(1,0)	(1,0)	(1,0)	(1,0)	(1,0)	(1,0)	(1,0)	(1,0)	(1,0)	(1,0)	(1,0)	(1,0)	(1,0)	
L1D -434>	(1,6)	(1,0)	(1,0)	(1,0)	(1,0)	(1,0)	(1,0)	(1,0)	(1,0)	(1,0)	(1,0)	(1,0)	(1,0)	(1,0)	(1,0)	(1,0)	
L1D -433>	(1,7)	(1,0)	(1,0)	(1,0)	(1,0)	(1,0)	(1,0)	(1,0)	(1,0)	(1,0)	(1,0)	(1,0)	(1,0)	(1,0)	(1,0)	(1,0)	
L1D -432>	(1,0)	(1,0)	(1,0)	(1,0)	(1,0)	(1,0)	(1,0)	(1,0)	(1,0)	(1,0)	(1,0)	(1,0)	(1,0)	(1,0)	(1,0)	(1,0)	
L1D -431>	(1,0)	(1,0)	(1,0)	(1,0)	(1,0)	(1,0)	(1,0)	(1,0)	(1,0)	(1,0)	(1,0)	(1,0)	(1,0)	(1,0)	(1,0)	(1,0)	
L1D -430>	(1,0)	(1,0)	(1,0)	(1,0)	(1,0)	(1,0)	(1,0)	(1,0)	(1,0)	(1,0)	(1,0)	(1,0)	(1,0)	(1,0)	(1,0)	(1,0)	
L1D -429>	(4,1)	(1,0)	(1,0)	(1,0)	(1,0)	(1,0)	(1,0)	(1,0)	(1,0)	(1,0)	(1,0)	(1,0)	(1,0)	(1,0)	(1,0)	(1,0)	
L1D -428>	(-1,3)	(1,0)	(1,0)	(1,0)	(1,0)	(1,0)	(1,0)	(1,0)	(1,0)	(1,0)	(1,0)	(1,0)	(1,0)	(1,0)	(1,0)	(1,0)	
L1D -427>	(1,12)	(-1,3)	(1,0)	(1,0)	(1,0)	(1,0)	(1,0)	(1,0)	(1,0)	(1,0)	(1,0)	(1,0)	(1,0)	(1,0)	(1,0)	(1,0)	
L1D -426>	(-1,37)	(1,22)	(1,0)	(1,0)	(1,0)	(1,0)	(1,0)	(1,0)	(1,0)	(1,0)	(1,0)	(1,0)	(1,0)	(1,0)	(1,0)	(1,0)	
L1D -425>	(-1,104)	(1,0)	(1,0)	(1,0)	(1,0)	(1,0)	(1,0)	(1,0)	(1,0)	(1,0)	(1,0)	(1,0)	(1,0)	(1,0)	(1,0)	(1,0)	
L1D -424>	(1,2)	(-1,1)	(1,0)	(1,0)	(1,0)	(1,0)	(1,0)	(1,0)	(1,0)	(1,0)	(1,0)	(1,0)	(1,0)	(1,0)	(1,0)	(1,0)	
L1D -423>	(215,8)	(1,0)	(1,0)	(1,0)	(1,0)	(1,0)	(1,0)	(1,0)	(1,0)	(1,0)	(1,0)	(1,0)	(1,0)	(1,0)	(1,0)	(1,0)	
L1D -422>	(1,5)	(-1,8)	(215,16)	(213,5)	(214,25)	(222,1)	(216,1)	(1,0)	(1,0)	(1,0)	(1,0)	(1,0)	(1,0)	(1,0)	(1,0)	(1,0)	
L1D -421>	(-1,92)	(213,6)	(214,11)	(1,0)	(1,0)	(1,0)	(1,0)	(1,0)	(1,0)	(1,0)	(1,0)	(1,0)	(1,0)	(1,0)	(1,0)	(1,0)	
L1D -420>	(215,1)	(2,1)	(1,0)	(1,0)	(1,0)	(1,0)	(1,0)	(1,0)	(1,0)	(1,0)	(1,0)	(1,0)	(1,0)	(1,0)	(1,0)	(1,0)	
L1D -419>	(1,0)	(1,0)	(1,0)	(1,0)	(1,0)	(1,0)	(1,0)	(1,0)	(1,0)	(1,0)	(1,0)	(1,0)	(1,0)	(1,0)	(1,0)	(1,0)	
L1D -418>	(3,68)	(4,1)	(1,0)	(1,0)	(1,0)	(1,0)	(1,0)	(1,0)	(1,0)	(1,0)	(1,0)	(1,0)	(1,0)	(1,0)	(1,0)	(1,0)	
L1D -417>	(1,0)	(1,0)	(1,0)	(1,0)	(1,0)	(1,0)	(1,0)	(1,0)	(1,0)	(1,0)	(1,0)	(1,0)	(1,0)	(1,0)	(1,0)	(1,0)	
L1D -416>	(1,0)	(1,0)	(1,0)	(1,0)	(1,0)	(1,0)	(1,0)	(1,0)	(1,0)	(1,0)	(1,0)	(1,0)	(1,0)	(1,0)	(1,0)	(1,0)	
L1D -415>	(1,93)	(-3,1)	(-1,0)	(1,0)	(1,0)	(1,0)	(1,0)	(1,0)	(1,0)	(1,0)	(1,0)	(1,0)	(1,0)	(1,0)	(1,0)	(1,0)	
L1D -414>	(1,124)	(1,0)	(1,0)	(1,0)	(1,0)	(1,0)	(1,0)	(1,0)	(1,0)	(1,0)	(1,0)	(1,0)	(1,0)	(1,0)	(1,0)	(1,0)	
L1D -413>	(1,3)	(-1,1)	(1,0)	(1,0)	(1,0)	(1,0)	(1,0)	(1,0)	(1,0)	(1,0)	(1,0)	(1,0)	(1,0)	(1,0)	(1,0)	(1,0)	
L1D -412>	(-1,1)	(1,0)	(1,0)	(1,0)	(1,0)	(1,0)	(1,0)	(1,0)	(1,0)	(1,0)	(1,0)	(1,0)	(1,0)	(1,0)	(1,0)	(1,0)	
L1D -411>	(-1,1)	(1,0)	(1,0)	(1,0)	(1,0)	(1,0)	(1,0)	(1,0)	(1,0)	(1,0)	(1,0)	(1,0)	(1,0)	(1,0)	(1,0)	(1,0)	
L1D -410>	(1,0)	(1,0)	(1,0)	(1,0)	(1,0)	(1,0)	(1,0)	(1,0)	(1,0)	(1,0)	(1,0)	(1,0)	(1,0)	(1,0)	(1,0)	(1,0)	
L1D -409>	(2,1)	(1,0)	(1,0)	(1,0)	(1,0)	(1,0)	(1,0)	(1,0)	(1,0)	(1,0)	(1,0)	(1,0)	(1,0)	(1,0)	(1,0)	(1,0)	
L1D -408>	(1,0)	(1,0)	(1,0)	(1,0)	(1,0)	(1,0)	(1,0)	(1,0)	(1,0)	(1,0)	(1,0)	(1,0)	(1,0)	(1,0)	(1,0)	(1,0)	
L1D -407>	(1,0)	(1,0)	(1,0)	(1,0)	(1,0)	(1,0)	(1,0)	(1,0)	(1,0)	(1,0)	(1,0)	(1,0)	(1,0)	(1,0)	(1,0)	(1,0)	
L1D -406>	(9,19)	(1,0)	(1,0)	(1,0)	(1,0)	(1,0)	(1,0)	(1,0)	(1,0)	(1,0)	(1,0)	(1,0)	(1,0)	(1,0)	(1,0)	(1,0)	
L1D -405>	(165,6)	(181,1)	(91,2)	(365,2)	(345,1)	(1,0)	(1,0)	(1,0)	(1,0)	(1,0)	(1,0)	(1,0)	(1,0)	(1,0)	(1,0)	(1,0)	
L1D -404>	(9,72)	(1,0)	(1,0)	(1,0)	(1,0)	(1,0)	(1,0)	(1,0)	(1,0)	(1,0)	(1,0)	(1,0)	(1,0)	(1,0)	(1,0)	(1,0)	
L1D -403>	(1,0)	(1,0)	(1,0)	(1,0)	(1,0)	(1,0)	(1,0)	(1,0)	(1,0)	(1,0)	(1,0)	(1,0)	(1,0)	(1,0)	(1,0)	(1,0)	
L1D -402>	(0,1)	(400,1)	(388,19)	(1,0)	(1,0)	(1,0)	(1,0)	(1,0)	(1,0)	(1,0)	(1,0)	(1,0)	(1,0)	(1,0)	(1,0)	(1,0)	
L1D -401>	(1,0)	(1,0)	(1,0)	(1,0)	(1,0)	(1,0)	(1,0)	(1,0)	(1,0)	(1,0)	(1,0)	(1,0)	(1,0)	(1,0)	(1,0)	(1,0)	
L1D -400>	(0,1)	(134,1)	(388,1)	(2,1)	(44,1)	(1,0)	(1,0)	(1,0)	(1,0)	(1,0)	(1,0)	(1,0)	(1,0)	(1,0)	(1,0)	(1,0)	
L1D -399>	(365,2)	(0,1)	(2,1)	(1,1)	(1,0)	(1,0)	(1,0)	(1,0)	(1,0)	(1,0)	(1,0)	(1,0)	(1,0)	(1,0)	(1,0)	(1,0)	
L1D -398>	(0,6)	(1,3)	(2,12)	(4,2)	(3,1)	(1,0)	(1,0)	(1,0)	(1,0)	(1,0)	(1,0)	(1,0)	(1,0)	(1,0)	(1,0)	(1,0)	
L1D -397>	(2,1)	(1,0)	(1,0)	(1,0)	(1,0)	(1,0)	(1,0)	(1,0)	(1,0)	(1,0)	(1,0)	(1,0)	(1,0)	(1,0)	(1,0)	(1,0)	
L1D -396>	(0,3)	(148,2)	(388,2)	(3,1)	(2,1)	(1,0)	(1,0)	(1,0)	(1,0)	(1,0)	(1,0)	(1,0)	(1,0)	(1,0)	(1,0)	(1,0)	
L1D -395>	(397,33)	(9,2)	(1,0)	(1,0)	(1,0)	(1,0)	(1,0)	(1,0)	(1,0)	(1,0)	(1,0)	(1,0)	(1,0)	(1,0)	(1,0)	(1,0)	
L1D -394>	(1,0)	(1,0)	(1,0)	(1,0)	(1,0)	(1,0)	(1,0)	(1,0)	(1,0)	(1,0)	(1,0)	(1,0)	(1,0)	(1,0)	(1,0)	(1,0)	
L1D -393>	(8,19)	(21,1)	(1,0)	(1,0)	(1,0)	(1,0)	(1,0)	(1,0)	(1,0)	(1,0)	(1,0)	(1,0)	(1,0)	(1,0)	(1,0)	(1,0)	
L1D -392>	(70,16)	(0,1)	(1,0)	(1,0)	(1,0)	(1,0)	(1,0)	(1,0)	(1,0)	(1,0)	(1,0)	(1,0)	(1,0)	(1,0)	(1,0)	(1,0)	
L1D -391>	(20,118)	(-4,1)	(-1,0)	(1,0)	(1,0)	(1,0)	(1,0)	(1,0)	(1,0)	(1,0)	(1,0)	(1,0)	(1,0)	(1,0)	(1,0)	(1,0)	
L1D -390>	(26,41)	(0,2)	(2,1)	(1,0)	(1,0)	(1,0)	(1,0)	(1,0)	(1,0)	(1,0)	(1,0)	(1,0)	(1,0)	(1,0)	(1,0)	(1,0)	
L1D -389>	(-1,1)	(1,0)	(1,0)	(1,0)	(1,0)	(1,0)	(1,0)	(1,0)	(1,0)	(1,0)	(1,0)	(1,0)	(1,0)	(1,0)	(1,0)	(1,0)	
L1D -388>	(148,5)	(267,9)	(0,1)	(-1,1)	(1,0)	(1,0)	(1,0)	(1,0)	(1,0)	(1,0)	(1,0)	(1,0)	(1,0)	(1,0)	(1,0)	(1,0)	
L1D -387>	(1,0)	(1,0)	(1,0)	(1,0)	(1,0)	(1,0)	(1,0)	(1,0)	(1,0)	(1,0)	(1,0)	(1,0)	(1,0)	(1,0)	(1,0)	(1,0)	
L1D -386>	(246,26)	(0,7)	(1,0)	(1,0)	(1,0)	(1,0)	(1,0)	(1,0)	(1,0)	(1,0)	(1,0)	(1,0)	(1,0)	(1,0)	(1,0)	(1,0)	
L1D -385>	(345,1)	(2,1)	(12,1)	(-12,1)	(1,0)	(1,0)	(1,0)	(1,0)	(1,0)	(1,0)	(1,0)	(1,0)	(1,0)	(1,0)	(1,0)	(1,0)	
L1D -384>	(0,2)	(-1,1)	(221,1)	(1,0)	(1,0)	(1,0)	(1,0)	(1,0)	(1,0)	(1,0)	(1,0)	(1,0)	(1,0)	(1,0)	(1,0)	(1,0)	
L1D -383>	(1,0)	(1,0)	(1,0)	(1,0)	(1,0)	(1,0)	(1,0)	(1,0)	(1,0)	(1,0)	(1,0)	(1,0)	(1,0)	(1,0)	(1,0)	(1,0)	
L1D -382>	(0,2)	(30,2)	(-1,1)	(1,0)	(1,0)	(1,0)	(1,0)	(1,0)	(1,0)	(1,0)	(1,0)	(1,0)	(1,0)	(1,0)	(1,0)	(1,0)	
L1D -381>	(1,0)	(1,0)	(1,0)	(1,0)	(1,0)	(1,0)	(1,0)	(1,0)	(1,0)	(1,0)	(1,0)	(1,0)	(1,0)	(1,0)	(1,0)	(1,0)	
L1D -380>	(294,2)	(-1,1)	(1,0)	(1,0)	(1,0)	(1,0)	(1,0)	(1,0)	(1,0)	(1,0)	(1,0)	(1,0)	(1,0)	(1,0)	(1,0)	(1,0)	
L1D -379>	(1,0)	(1,0)	(1,0)	(1,0)	(1,0)	(1,0)	(1,0)	(1,0)	(1,0)	(1,0)	(1,0)	(1,0)	(1,0)	(1,0)	(1,0)	(1,0)	
L1D -378>	(0,1)	(1,0)	(1,0)	(1,0)	(1,0)	(1,0)	(1,0)	(1,0)	(1,0)	(1,0)	(1,0)	(1,0)	(1,0)	(1,0)	(1,0)	(1,0)	
L1D -377>	(341,3)	(166,1)	(1,0)	(1,0)	(1,0)	(1,0)	(1,0)	(1,0)	(1,0)	(1,0)	(1,0)	(1,0)	(1,0)	(1,0)	(1,0)	(1,0)	
L1D -376>	(1,0)	(1,0)	(1,0)	(1,0)	(1,0)	(1,0)	(1,0)	(1,0)	(1,0)	(1,0)	(1,0)	(1,0)	(1,0)	(1,0)	(1,0)	(1,0)	
L1D -375>	(0,1)	(1,0)	(1,0)	(1,0)	(1,0)	(1,0)	(1,0)	(1,0)	(1,0)	(1,0)	(1,0)	(1,0)	(1,0)	(1,0)	(1,0)	(1,0)	
L1D -374>	(1,0)	(1,0)	(1,0)	(1,0)	(1,0)	(1,0)	(1,0)	(1,0)	(1,0)	(1,0)	(1,0)	(1,0)	(1,0)	(1,0)	(1,0)	(1,0)	
L1D -373>	(1,0)	(1,0)	(1,0)	(1,0)	(1,0)	(1,0)	(1,0)	(1,0)	(1,0)	(1,0)	(1,0)	(1,0)	(1,0)	(1,0)	(1,0)	(1,0)	
L1D -372>	(-21,114)	(-13,0)	(1,0)	(1,0)	(1,0)	(1,0)	(1,0)	(1,0)	(1,0)	(1,0)	(1,0)	(1,0)	(1,0)	(1,0)	(1,0)	(1,0)	
L1D -371>	(214,1)	(1,0)	(1,0)	(1,0)	(1,0)	(1,0)	(1,0)	(1,0)	(1,0)	(1,0)	(1,0)	(1,0)	(1,0)	(1,0)	(1,0)	(1,0)	
L1D -370>	(234,30)	(140,10)	(184,4)	(25,26)	(1,0)	(1,0)	(1,0)	(1,0)	(1,0)	(1,0)	(1,0)	(1,0)	(1,0)	(1,0)	(1,0)	(1,0)	
L1D -369>	(-1,3)	(1,0)	(1,0)	(1,0)	(1,0)	(1,0)	(1,0)	(1,0)	(1,0)	(1,0)	(1,0)	(1,0)	(1,0)	(1,0)	(1,0)	(1,0)	
L1D -368>	(-4,8)	(366,10)	(1,0)	(1,0)	(1,0)	(1,0)	(1,0)	(1,0)	(1,0)	(1,0)	(1,0)	(1,0)	(1,0)	(1,0)	(1,0)	(1,0)	
L1D -367>	(5,3)	(22,1)	(1,0)	(1,0)	(1,0)	(1,0)	(1,0)	(1,0)	(1,0)	(1,0)	(1,0)	(1,0)	(1,0)	(1,0)	(1,0)	(1,0)	
L1D -366>	(331,2)	(9,19)	(3,8)	(5,2)	(6,2)	(78,2)	(1,0)	(1,0)	(1,0)	(1,0)	(1,0)	(1,0)	(1,0)	(1,0)	(1,0)	(1,0)	
L1D -365>	(369,2)	(1,0)	(1,0)	(1,0)	(1,0)	(1,0)	(1,0)	(1,0)	(1,0)	(1,0)	(1,0)	(1,0)	(1,0)	(1,0)	(1,0)	(1,0)	
L1D -364>	(268,75)	(5,2)	(49,0)	(-26,1)	(9,1)	(353,0)	(51,0)	(50,0)	(44,1)	(1,0)	(1,0)	(1,0)	(1,0)	(1,0)	(1,0)	(1,0)	
L1D -363>	(403,3)	(51,9)	(175,2)	(83,2)	(361,1)	(75,62)	(9,40)	(345,3)	(355,1)	(5,2)	(367,2)	(-1,1)	(1,0)	(1,0)	(1,0)	(1,0)	
L1D -362>	(360,8)	(50,3)	(36,1)	(52,1)	(51,1)	(27,3)	(17,2)	(1,0)	(1,0)	(1,0)	(1,0)	(1,0)	(1,0)	(1,0)	(1,0)	(1,0)	
L1D -361>	(331,5)	(359,1)	(44,1)	(49,1)	(354,1)	(1,1)	(1,0)	(1,0)	(1,0)	(1,0)	(1,0)	(1,0)	(1,0)	(1,0)	(1,0)	(1,0)	
L1D -360>	(298,118)	(296,38)	(148,13)	(42,4)	(358,1)	(0,3)	(48,7)	(346,1)	(36,2)	(51,1)	(40,2)	(64,4)	(142,1)	(262,1)	(2,1)	(47,2)	
L1D -359>	(47,3)	(-1,3)	(364,1)	(43,1)	(358,1)	(1,0)	(1,0)	(1,0)	(1,0)	(1,0)	(1,0)	(1,0)	(1,0)	(1,0)	(1,0)	(1,0)	
L1D -358>	(46,0)	(234,0)	(356,72)	(16,0)	(347,0)	(316,0)	(364,0)	(363,0)	(1,0)	(1,0)	(1,0)	(1,0)	(1,0)	(1,0)	(1,0)	(1,0)	
L1D -357>	(351,1)	(350,1)	(47,1)	(1,0)	(1,0)	(1,0)	(1,0)	(1,0)	(1,0)	(1,0)	(1,0)	(1,0)	(1,0)	(1,0)	(1,0)	(1,0)	
L1D -356>	(-31,8)	(262,18)	(70,13)	(40,1)	(361,1)	(34,1)	(360,1)	(343,2)	(47,4)	(1,0)	(1,0)	(1,0)	(1,0)	(1,0)	(1,0)	(1,0)	
L1D -355>	(43,1)	(215,113)	(365,16)	(364,1)	(1,0)	(1,0)	(1,0)	(1,0)	(1,0)	(1,0)	(1,0)	(1,0)	(1,0)	(1,0)	(1,0)	(1,0)	
L1D -354>	(336,0)	(250,0)	(380,0)	(364,0)	(268,0)	(240,0)	(-42,0)	(154,0)	(396,0)	(402,0)	(292,0)	(400,0)	(388,82)	(398,1)	(378,1)	(337,0)	
L1D -353>	(342,1)	(47,1)	(1,0)	(1,0)	(1,0)	(1,0)	(1,0)	(1,0)	(1,0)	(1,0)	(1,0)	(1,0)	(1,0)	(1,0)	(1,0)	(1,0)	
L1D -352>	(142,0)	(220,94)	(88,1)	(-30,3)	(244,0)	(12,0)	(242,0)	(254,0)	(260,0)	(38,0)	(212,0)	(264,0)	(124,2)	(2,0)	(218,0)	(92,0)	
L1D -351>	(317,2)	(213,1)	(95,4)	(265,1)	(39,1)	(361,2)	(44,1)	(1,0)	(1,0)	(1,0)	(1,0)	(1,0)	(1,0)	(1,0)	(1,0)	(1,0)	
L1D -350>	(1,77)	(20,1)	(-2,0)	(304,1)	(30,0)	(252,1)	(1,0)	(1,0)	(1,0)	(1,0)	(1,0)	(1,0)	(1,0)	(1,0)	(1,0)	(1,0)	
L1D -349>	(181,4)	(351,1)	(-1,1)	(1,0)	(1,0)	(1,0)	(1,0)	(1,0)	(1,0)	(1,0)	(1,0)	(1,0)	(1,0)	(1,0)	(1,0)	(1,0)	
L1D -348>	(212,4)	(4,13)	(12,2)	(36,1)	(347,8)	(256,1)	(-16,1)	(1,0)	(1,0)	(1,0)	(1,0)	(1,0)	(1,0)	(1,0)	(1,0)	(1,0)	
L1D -347>	(176,3)	(174,19)	(347,1)	(349,1)	(2,51)	(4,9)	(346,9)	(172,25)	(348,21)	(360,1)	(-1,13)	(344,65)	(93,1)	(313,2)	(343,1)	(3,23)	
L1D -346>	(342,19)	(254,54)	(345,123)	(344,0)	(3,25)	(343,24)	(234,0)	(174,29)	(173,2)	(347,3)	(172,3)	(1,21)	(9,0)	(1,0)	(1,0)	(1,0)	
L1D -345>	(169,12)	(171,5)	(342,21)	(173,13)	(345,120)	(1,6)	(346,60)	(-1,3)	(344,9)	(301,3)	(2,8)	(172,33)	(351,2)	(3,13)	(85,0)	(347,2)	
L1D -344>	(171,76)	(342,1)	(172,64)	(343,115)	(174,11)	(170,5)	(-1,17)	(168,15)	(2,4)	(341,7)	(173,82)	(4,21)	(3,7)	(1,9)	(347,13)	(169,10)	
L1D -343>	(346,17)	(-3,17)	(343,4)	(171,44)	(342,91)	(345,51)	(169,6)	(-1,88)	(172,42)	(-2,8)	(1,70)	(168,0)	(173,0)	(170,1)	(2,0)	(344,0)	
L1D -342>	(0,0)	(345,22)	(-1,52)	(170,74)	(341,0)	(-3,2)	(169,0)	(-4,109)	(343,0)	(346,29)	(173,1)	(172,0)	(344,0)	(5,0)	(-2,0)	(1,0)	
L1D -341>	(172,70)	(-3,0)	(171,80)	(342,3)	(170,12)	(-1,79)	(-2,14)	(169,15)	(343,18)	(168,3)	(364,0)	(-4,1)	(1,1)	(0,0)	(173,5)	(1,0)	
L1D -340>	(342,0)	(343,9)	(171,73)	(44,0)	(68,0)	(169,12)	(172,15)	(168,14)	(-4,3)	(1,0)	(-1,10)	(2,0)	(344,5)	(1,0)	(1,0)	(1,0)	
L1D -339>	(26,1)	(22,0)	(286,15)	(148,0)	(310,0)	(399,0)	(27,0)	(276,74)	(338,0)	(1,0)	(1,0)	(1,0)	(1,0)	(1,0)	(1,0)	(1,0)	
L1D -338>	(134,5)	(306,16)	(24,36)	(252,12)	(-14,39)	(354,3)	(242,3)	(-12,8)	(342,2)	(78,17)	(316,11)	(304,24)	(173,1)	(244,2)	(337,1)	(26,1)	
L1D -337>	(1,15)	(4,1)	(365,2)	(-1,53)	(26,2)	(172,22)	(336,1)	(27,1)	(-172,1)	(-2,4)	(1,0)	(1,0)	(1,0)	(1,0)	(1,0)	(1,0)	
L1D -336>	(212,88)	(335,0)	(158,0)	(338,0)	(24,0)	(354,0)	(240,0)	(72,0)	(112,0)	(192,0)	(228,0)	(200,0)	(313,0)	(1,0)	(1,0)	(1,0)	
L1D -335>	(-2,4)	(172,18)	(-1,20)	(23,2)	(313,1)	(334,1)	(2,1)	(1,0)	(1,0)	(1,0)	(1,0)	(1,0)	(1,0)	(1,0)	(1,0)	(1,0)	
L1D -334>	(334,3)	(66,1)	(14,2)	(22,1)	(1,0)	(1,0)	(1,0)	(1,0)	(1,0)	(1,0)	(1,0)	(1,0)	(1,0)	(1,0)	(1,0)	(1,0)	
L1D -333>	(9,3)	(4,2)	(313,2)	(5,1)	(332,1)	(1,0)	(1,0)	(1,0)	(1,0)	(1,0)	(1,0)	(1,0)	(1,0)	(1,0)	(1,0)	(1,0)	
L1D -332>	(18,69)	(334,70)	(4,0)	(250,0)	(330,0)	(220,0)	(242,0)	(-14,0)	(98,1)	(222,0)	(2,0)	(20,0)	(1,0)	(1,0)	(1,0)	(1,0)	
L1D -331>	(332,7)	(331,10)	(330,5)	(286,2)	(326,28)	(367,21)	(366,15)	(245,12)	(163,4)	(196,85)	(164,8)	(43,3)	(19,1)	(1,0)	(1,0)	(1,0)	
L1D -330>	(212,2)	(286,49)	(244,3)	(300,2)	(108,1)	(15,1)	(228,2)	(41,1)	(8,0)	(-22,57)	(232,8)	(338,6)	(276,78)	(18,0)	(124,15)	(83,15)	
L1D -329>	(41,74)	(4,1)	(3,3)	(40,12)	(163,1)	(9,16)	(15,0)	(1,0)	(1,0)	(1,0)	(1,0)	(1,0)	(1,0)	(1,0)	(1,0)	(1,0)	
L1D -328>	(1,21)	(264,4)	(318,2)	(66,2)	(-9,1)	(308,1)	(16,1)	(216,126)	(4,24)	(116,20)	(-32,10)	(313,1)	(5,2)	(9,2)	(1,0)	(1,0)	
L1D -327>	(0,1)	(1,1)	(15,1)	(7,50)	(-1,4)	(5,8)	(1,0)	(1,0)	(1,0)	(1,0)	(1,0)	(1,0)	(1,0)	(1,0)	(1,0)	(1,0)	
L1D -326>	(1,89)	(54,0)	(218,0)	(262,0)	(-3,3)	(96,8)	(318,1)	(140,0)	(313,0)	(1,0)	(1,0)	(1,0)	(1,0)	(1,0)	(1,0)	(1,0)	
L1D -325>	(41,5)	(1,1)	(5,106)	(60,0)	(40,1)	(9,0)	(13,0)	(1,0)	(1,0)	(1,0)	(1,0)	(1,0)	(1,0)	(1,0)	(1,0)	(1,0)	
L1D -324>	(5,0)	(9,81)	(20,0)	(4,4)	(40,10)	(313,0)	(238,13)	(-4,0)	(-9,0)	(1,0)	(1,0)	(1,0)	(1,0)	(1,0)	(1,0)	(1,0)	
L1D -323>	(9,57)	(11,1)	(-6,1)	(2,102)	(44,3)	(5,3)	(-10,6)	(313,0)	(1,0)	(1,0)	(1,0)	(1,0)	(1,0)	(1,0)	(1,0)	(1,0)	
L1D -322>	(280,3)	(74,70)	(314,64)	(197,71)	(10,0)	(302,64)	(82,1)	(4,0)	(42,0)	(320,0)	(5,2)	(232,1)	(288,0)	(96,1)	(41,0)	(28,0)	
L1D -321>	(215,18)	(2,2)	(5,59)	(4,5)	(41,20)	(-1,4)	(1,0)	(1,0)	(1,0)	(1,0)	(1,0)	(1,0)	(1,0)	(1,0)	(1,0)	(1,0)	
L1D -320>	(4,1)	(78,1)	(40,31)	(-16,2)	(90,3)	(-44,0)	(-14,5)	(6,0)	(258,0)	(278,0)	(314,2)	(102,3)	(52,2)	(41,2)	(214,0)	(236,95)	
L1D -319>	(319,9)	(167,4)	(9,37)	(265,32)	(361,3)	(318,1)	(4,3)	(316,1)	(317,2)	(6,1)	(1,0)	(1,0)	(1,0)	(1,0)	(1,0)	(1,0)	
L1D -318>	(358,0)	(8,0)	(-42,0)	(254,0)	(-1,0)	(-10,0)	(9,109)	(4,0)	(84,9)	(94,0)	(-28,1)	(352,0)	(1,0)	(1,0)	(1,0)	(1,0)	
L1D -317>	(319,1)	(345,10)	(7,1)	(315,1)	(314,3)	(-46,1)	(316,1)	(1,1)	(-41,1)	(265,3)	(313,3)	(6,1)	(4,1)	(1,0)	(1,0)	(1,0)	
L1D -316>	(106,120)	(100,1)	(30,5)	(-43,1)	(314,0)	(112,0)	(-2,0)	(20,77)	(41,0)	(104,0)	(358,0)	(313,0)	(122,3)	(4,1)	(252,3)	(330,0)	
L1D -315>	(316,5)	(309,2)	(310,1)	(303,1)	(314,1)	(299,2)	(-25,1)	(-39,1)	(-49,1)	(4,1)	(-13,1)	(311,1)	(3,2)	(312,1)	(1,0)	(1,0)	
L1D -314>	(272,88)	(270,3)	(298,78)	(28,1)	(-6,1)	(274,1)	(106,3)	(218,0)	(84,0)	(198,2)	(206,1)	(98,1)	(310,0)	(311,0)	(306,0)	(-24,1)	
L1D -313>	(-2,6)	(21,2)	(-1,1)	(314,2)	(-26,1)	(309,5)	(311,11)	(305,1)	(317,2)	(308,3)	(298,2)	(312,6)	(-50,1)	(310,6)	(8,1)	(300,1)	
L1D -312>	(305,108)	(316,5)	(-1,6)	(320,6)	(311,11)	(319,4)	(-25,1)	(308,7)	(310,11)	(318,6)	(307,2)	(350,11)	(7,2)	(327,4)	(-47,2)	(315,12)	
L1D -311>	(294,6)	(-27,1)	(332,1)	(-37,1)	(-1,9)	(2,1)	(318,2)	(-51,1)	(319,2)	(324,1)	(296,1)	(288,1)	(314,2)	(5,1)	(313,4)	(-52,1)	
L1D -310>	(148,15)	(354,20)	(336,16)	(134,12)	(244,6)	(0,7)	(256,7)	(258,6)	(174,2)	(228,2)	(313,2)	(-46,1)	(-2,24)	(208,42)	(108,17)	(309,2)	
L1D -309>	(316,6)	(311,1)	(-3,4)	(312,1)	(305,1)	(-52,2)	(310,1)	(307,1)	(11,1)	(-48,1)	(1,0)	(1,0)	(1,0)	(1,0)	(1,0)	(1,0)	
L1D -308>	(260,125)	(258,3)	(270,95)	(122,1)	(-3,0)	(311,0)	(82,0)	(222,0)	(220,0)	(14,0)	(244,5)	(332,0)	(150,0)	(238,0)	(8,0)	(1,0)	
L1D -307>	(-5,1)	(312,1)	(1,0)	(1,0)	(1,0)	(1,0)	(1,0)	(1,0)	(1,0)	(1,0)	(1,0)	(1,0)	(1,0)	(1,0)	(1,0)	(1,0)	
L1D -306>	(316,19)	(326,9)	(324,2)	(304,3)	(42,2)	(295,1)	(10,1)	(354,1)	(8,32)	(-1,1)	(311,1)	(52,11)	(321,1)	(240,4)	(310,1)	(272,1)	
L1D -305>	(408,22)	(20,17)	(12,79)	(345,2)	(293,1)	(310,1)	(322,1)	(-7,1)	(13,3)	(2,1)	(311,1)	(306,1)	(1,0)	(1,0)	(1,0)	(1,0)	
L1D -304>	(28,35)	(74,10)	(20,5)	(116,4)	(-40,2)	(323,1)	(112,2)	(304,1)	(258,42)	(354,20)	(-22,11)	(208,12)	(305,1)	(311,3)	(-6,1)	(306,1)	
L1D -303>	(68,95)	(140,2)	(311,0)	(154,2)	(260,7)	(306,0)	(242,0)	(1,0)	(1,0)	(1,0)	(1,0)	(1,0)	(1,0)	(1,0)	(1,0)	(1,0)	
L1D -302>	(140,6)	(192,2)	(104,1)	(80,2)	(158,1)	(92,1)	(-22,0)	(96,106)	(324,0)	(188,3)	(1,0)	(1,0)	(1,0)	(1,0)	(1,0)	(1,0)	
L1D -301>	(326,1)	(-11,1)	(-10,1)	(303,1)	(306,1)	(347,1)	(311,1)	(308,1)	(1,0)	(1,0)	(1,0)	(1,0)	(1,0)	(1,0)	(1,0)	(1,0)	
L1D -300>	(66,35)	(-22,36)	(115,3)	(338,18)	(104,3)	(-8,2)	(192,1)	(98,1)	(242,26)	(301,1)	(-12,2)	(311,1)	(238,1)	(314,1)	(-10,1)	(1,0)	
L1D -299>	(327,2)	(-13,1)	(310,2)	(311,1)	(-1,1)	(1,0)	(1,0)	(1,0)	(1,0)	(1,0)	(1,0)	(1,0)	(1,0)	(1,0)	(1,0)	(1,0)	
L1D -298>	(254,9)	(94,1)	(314,2)	(338,0)	(272,0)	(40,0)	(-22,0)	(296,0)	(154,0)	(318,0)	(188,98)	(250,16)	(1,0)	(1,0)	(1,0)	(1,0)	
L1D -297>	(-15,1)	(1,0)	(1,0)	(1,0)	(1,0)	(1,0)	(1,0)	(1,0)	(1,0)	(1,0)	(1,0)	(1,0)	(1,0)	(1,0)	(1,0)	(1,0)	
L1D -296>	(338,11)	(42,13)	(294,14)	(26,32)	(258,2)	(267,32)	(200,26)	(284,2)	(256,16)	(-12,2)	(-22,42)	(-2,2)	(250,19)	(86,2)	(-66,2)	(-16,2)	
L1D -295>	(311,1)	(-4,1)	(2,1)	(-17,1)	(1,0)	(1,0)	(1,0)	(1,0)	(1,0)	(1,0)	(1,0)	(1,0)	(1,0)	(1,0)	(1,0)	(1,0)	
L1D -294>	(392,1)	(0,2)	(166,115)	(-1,1)	(250,101)	(354,0)	(72,1)	(44,2)	(228,2)	(334,0)	(298,0)	(32,18)	(70,4)	(268,0)	(364,2)	(-20,1)	
L1D -293>	(9,1)	(-19,1)	(319,57)	(345,15)	(317,29)	(-20,15)	(-12,3)	(1,0)	(1,0)	(1,0)	(1,0)	(1,0)	(1,0)	(1,0)	(1,0)	(1,0)	
L1D -292>	(300,0)	(-13,64)	(8,1)	(-21,1)	(316,0)	(212,1)	(380,1)	(294,1)	(108,0)	(10,1)	(122,1)	(303,0)	(260,1)	(268,0)	(318,53)	(40,1)	
L1D -291>	(1,1)	(5,28)	(-4,2)	(-20,1)	(21,1)	(331,2)	(-1,1)	(311,1)	(1,0)	(1,0)	(1,0)	(1,0)	(1,0)	(1,0)	(1,0)	(1,0)	
L1D -290>	(302,0)	(42,62)	(331,0)	(242,0)	(212,6)	(145,0)	(30,15)	(100,0)	(40,1)	(224,0)	(288,0)	(262,0)	(264,0)	(244,1)	(116,90)	(10,11)	
L1D -289>	(41,44)	(320,0)	(-1,0)	(9,103)	(330,1)	(289,0)	(4,0)	(40,10)	(1,0)	(1,0)	(1,0)	(1,0)	(1,0)	(1,0)	(1,0)	(1,0)	
L1D -288>	(308,27)	(-28,6)	(4,10)	(0,2)	(289,3)	(136,26)	(9,1)	(40,24)	(10,11)	(-1,1)	(8,12)	(218,1)	(14,1)	(18,1)	(1,0)	(1,0)	
L1D -287>	(1,1)	(8,90)	(3,39)	(0,2)	(-1,1)	(1,0)	(1,0)	(1,0)	(1,0)	(1,0)	(1,0)	(1,0)	(1,0)	(1,0)	(1,0)	(1,0)	
L1D -286>	(204,0)	(308,79)	(36,0)	(-28,0)	(20,0)	(13,2)	(288,0)	(284,1)	(106,0)	(9,0)	(-10,0)	(38,0)	(186,1)	(4,0)	(100,0)	(270,0)	
L1D -285>	(4,4)	(41,3)	(74,1)	(9,5)	(1,0)	(1,0)	(1,0)	(1,0)	(1,0)	(1,0)	(1,0)	(1,0)	(1,0)	(1,0)	(1,0)	(1,0)	
L1D -284>	(5,1)	(40,68)	(268,0)	(74,0)	(9,118)	(4,7)	(112,1)	(318,0)	(64,63)	(272,0)	(308,0)	(212,64)	(350,0)	(66,1)	(114,0)	(303,0)	
L1D -283>	(4,100)	(102,0)	(212,2)	(186,0)	(218,0)	(72,6)	(96,0)	(9,1)	(64,0)	(1,0)	(1,0)	(1,0)	(1,0)	(1,0)	(1,0)	(1,0)	
L1D -282>	(271,1)	(70,0)	(114,0)	(283,0)	(41,4)	(308,73)	(106,37)	(318,13)	(218,0)	(98,4)	(222,0)	(1,0)	(1,0)	(1,0)	(1,0)	(1,0)	
L1D -281>	(42,55)	(271,1)	(41,15)	(4,4)	(2,1)	(1,0)	(1,0)	(1,0)	(1,0)	(1,0)	(1,0)	(1,0)	(1,0)	(1,0)	(1,0)	(1,0)	
L1D -280>	(114,1)	(54,0)	(-12,42)	(14,0)	(41,104)	(-10,0)	(92,1)	(206,0)	(160,37)	(36,0)	(146,12)	(320,0)	(8,3)	(198,7)	(230,0)	(40,0)	
L1D -279>	(284,1)	(40,14)	(4,15)	(-9,1)	(-1,1)	(9,1)	(1,0)	(1,0)	(1,0)	(1,0)	(1,0)	(1,0)	(1,0)	(1,0)	(1,0)	(1,0)	
L1D -278>	(214,0)	(312,69)	(238,0)	(236,0)	(350,0)	(304,1)	(318,0)	(212,0)	(106,0)	(368,0)	(200,0)	(224,0)	(292,0)	(-32,0)	(360,75)	(-2,0)	
L1D -277>	(1,1)	(-6,11)	(1,0)	(1,0)	(1,0)	(1,0)	(1,0)	(1,0)	(1,0)	(1,0)	(1,0)	(1,0)	(1,0)	(1,0)	(1,0)	(1,0)	
L1D -276>	(186,28)	(302,3)	(18,4)	(278,1)	(260,2)	(-92,22)	(28,1)	(142,1)	(230,32)	(204,11)	(226,1)	(1,0)	(1,0)	(1,0)	(1,0)	(1,0)	
L1D -275>	(277,30)	(90,0)	(5,0)	(58,3)	(212,78)	(66,0)	(41,2)	(40,0)	(1,0)	(1,0)	(1,0)	(1,0)	(1,0)	(1,0)	(1,0)	(1,0)	
L1D -274>	(166,3)	(-31,5)	(136,7)	(186,3)	(314,1)	(68,2)	(122,12)	(106,4)	(78,32)	(291,8)	(2,1)	(1,0)	(1,0)	(1,0)	(1,0)	(1,0)	
L1D -273>	(1,0)	(1,0)	(1,0)	(1,0)	(1,0)	(1,0)	(1,0)	(1,0)	(1,0)	(1,0)	(1,0)	(1,0)	(1,0)	(1,0)	(1,0)	(1,0)	
L1D -272>	(-54,111)	(72,31)	(-10,22)	(289,2)	(80,86)	(160,1)	(312,58)	(244,2)	(2,1)	(268,7)	(118,3)	(162,2)	(96,5)	(303,81)	(264,1)	(240,1)	
L1D -271>	(41,68)	(54,3)	(153,0)	(50,1)	(1,0)	(1,0)	(1,0)	(1,0)	(1,0)	(1,0)	(1,0)	(1,0)	(1,0)	(1,0)	(1,0)	(1,0)	
L1D -270>	(-21,119)	(348,1)	(-16,2)	(272,0)	(14,0)	(204,1)	(154,0)	(202,2)	(-25,0)	(28,3)	(266,0)	(1,0)	(1,0)	(1,0)	(1,0)	(1,0)	
L1D -269>	(268,2)	(269,2)	(1,0)	(1,0)	(1,0)	(1,0)	(1,0)	(1,0)	(1,0)	(1,0)	(1,0)	(1,0)	(1,0)	(1,0)	(1,0)	(1,0)	
L1D -268>	(4,6)	(332,0)	(290,27)	(269,1)	(172,58)	(-73,0)	(338,0)	(303,0)	(134,0)	(-52,1)	(228,0)	(313,2)	(-68,1)	(40,75)	(198,6)	(200,6)	
L1D -267>	(158,45)	(0,2)	(196,13)	(337,8)	(240,12)	(58,2)	(231,2)	(284,22)	(180,22)	(212,9)	(1,0)	(1,0)	(1,0)	(1,0)	(1,0)	(1,0)	
L1D -266>	(198,6)	(212,57)	(314,11)	(228,2)	(82,8)	(254,2)	(242,4)	(284,2)	(8,2)	(72,6)	(328,4)	(264,1)	(267,1)	(-95,2)	(96,30)	(168,74)	
L1D -265>	(167,115)	(5,0)	(138,0)	(264,32)	(361,3)	(-3,1)	(2,1)	(1,0)	(1,0)	(1,0)	(1,0)	(1,0)	(1,0)	(1,0)	(1,0)	(1,0)	
L1D -264>	(0,5)	(332,4)	(48,9)	(-6,1)	(68,2)	(-4,8)	(2,9)	(36,8)	(124,2)	(318,3)	(308,2)	(46,2)	(224,83)	(286,8)	(20,46)	(5,7)	
L1D -263>	(361,1)	(-3,1)	(1,0)	(1,0)	(1,0)	(1,0)	(1,0)	(1,0)	(1,0)	(1,0)	(1,0)	(1,0)	(1,0)	(1,0)	(1,0)	(1,0)	
L1D -262>	(-32,3)	(166,11)	(115,1)	(3,20)	(18,17)	(312,1)	(268,2)	(306,7)	(260,3)	(328,70)	(-3,44)	(370,21)	(222,6)	(116,29)	(267,7)	(338,57)	
L1D -261>	(40,1)	(103,12)	(1,0)	(1,0)	(1,0)	(1,0)	(1,0)	(1,0)	(1,0)	(1,0)	(1,0)	(1,0)	(1,0)	(1,0)	(1,0)	(1,0)	
L1D -260>	(220,1)	(152,112)	(106,8)	(-78,2)	(-92,1)	(288,12)	(380,5)	(66,3)	(12,0)	(308,1)	(168,2)	(-5,0)	(326,9)	(-90,0)	(-54,2)	(-12,2)	
L1D -259>	(-5,16)	(24,5)	(1,0)	(1,0)	(1,0)	(1,0)	(1,0)	(1,0)	(1,0)	(1,0)	(1,0)	(1,0)	(1,0)	(1,0)	(1,0)	(1,0)	
L1D -258>	(115,84)	(78,1)	(262,84)	(-10,2)	(38,7)	(66,28)	(224,0)	(230,1)	(84,0)	(70,0)	(-56,0)	(112,77)	(-58,1)	(252,1)	(216,1)	(120,0)	
L1D -257>	(-1,1)	(1,0)	(1,0)	(1,0)	(1,0)	(1,0)	(1,0)	(1,0)	(1,0)	(1,0)	(1,0)	(1,0)	(1,0)	(1,0)	(1,0)	(1,0)	
L1D -256>	(2,22)	(84,126)	(74,11)	(194,2)	(14,7)	(1,17)	(232,5)	(-54,1)	(166,1)	(239,2)	(328,7)	(196,6)	(312,15)	(-14,12)	(8,3)	(208,1)	
L1D -255>	(-1,1)	(1,0)	(1,0)	(1,0)	(1,0)	(1,0)	(1,0)	(1,0)	(1,0)	(1,0)	(1,0)	(1,0)	(1,0)	(1,0)	(1,0)	(1,0)	
L1D -254>	(352,24)	(24,4)	(118,1)	(272,5)	(254,2)	(114,13)	(318,2)	(-10,12)	(28,19)	(-52,10)	(26,2)	(153,1)	(316,1)	(1,0)	(1,0)	(1,0)	
L1D -253>	(294,5)	(1,0)	(1,0)	(1,0)	(1,0)	(1,0)	(1,0)	(1,0)	(1,0)	(1,0)	(1,0)	(1,0)	(1,0)	(1,0)	(1,0)	(1,0)	
L1D -252>	(260,0)	(386,96)	(-10,0)	(208,0)	(112,5)	(-9,2)	(146,0)	(106,0)	(188,16)	(267,0)	(118,0)	(360,0)	(154,2)	(256,0)	(164,0)	(28,0)	
L1D -251>	(1,20)	(4,7)	(7,3)	(1,0)	(1,0)	(1,0)	(1,0)	(1,0)	(1,0)	(1,0)	(1,0)	(1,0)	(1,0)	(1,0)	(1,0)	(1,0)	
L1D -250>	(-40,20)	(254,44)	(244,28)	(177,30)	(2,76)	(-10,23)	(334,2)	(291,1)	(0,1)	(292,1)	(318,10)	(56,25)	(106,10)	(204,1)	(290,2)	(268,1)	
L1D -249>	(289,30)	(40,1)	(-1,2)	(290,1)	(2,1)	(1,0)	(1,0)	(1,0)	(1,0)	(1,0)	(1,0)	(1,0)	(1,0)	(1,0)	(1,0)	(1,0)	
L1D -248>	(4,1)	(9,0)	(-12,1)	(10,0)	(190,5)	(144,0)	(286,0)	(16,0)	(-24,1)	(32,0)	(98,0)	(41,0)	(5,2)	(40,84)	(54,1)	(288,0)	
L1D -247>	(72,1)	(4,0)	(8,0)	(64,0)	(194,70)	(256,0)	(1,0)	(1,0)	(1,0)	(1,0)	(1,0)	(1,0)	(1,0)	(1,0)	(1,0)	(1,0)	
L1D -246>	(144,2)	(78,1)	(48,1)	(154,1)	(272,3)	(142,1)	(318,0)	(294,0)	(8,73)	(7,49)	(-1,1)	(1,1)	(4,0)	(-76,51)	(220,28)	(238,3)	
L1D -245>	(9,13)	(0,2)	(2,3)	(5,16)	(4,5)	(1,1)	(-2,1)	(1,0)	(1,0)	(1,0)	(1,0)	(1,0)	(1,0)	(1,0)	(1,0)	(1,0)	
L1D -244>	(48,9)	(5,68)	(41,1)	(318,0)	(338,1)	(226,0)	(310,78)	(268,1)	(242,12)	(108,6)	(4,0)	(2,0)	(-22,1)	(254,0)	(9,1)	(236,0)	
L1D -243>	(-4,1)	(-1,0)	(4,70)	(5,108)	(-9,0)	(9,5)	(40,0)	(1,0)	(1,0)	(1,0)	(1,0)	(1,0)	(1,0)	(1,0)	(1,0)	(1,0)	
L1D -242>	(158,10)	(30,1)	(20,18)	(2,87)	(194,14)	(176,1)	(260,2)	(48,4)	(-80,1)	(168,1)	(5,3)	(18,2)	(-10,0)	(350,0)	(9,1)	(252,3)	
L1D -241>	(5,83)	(40,15)	(1,0)	(1,0)	(1,0)	(1,0)	(1,0)	(1,0)	(1,0)	(1,0)	(1,0)	(1,0)	(1,0)	(1,0)	(1,0)	(1,0)	
L1D -240>	(10,18)	(290,1)	(28,5)	(40,2)	(-10,124)	(314,0)	(5,13)	(304,0)	(130,0)	(-74,3)	(239,2)	(24,1)	(4,1)	(38,4)	(116,3)	(190,6)	
L1D -239>	(5,74)	(4,12)	(-42,6)	(1,39)	(40,80)	(186,6)	(0,1)	(-4,1)	(1,0)	(1,0)	(1,0)	(1,0)	(1,0)	(1,0)	(1,0)	(1,0)	
L1D -238>	(-10,1)	(-56,0)	(8,3)	(102,0)	(38,0)	(44,119)	(198,2)	(2,3)	(298,2)	(-76,1)	(308,6)	(16,6)	(172,1)	(5,0)	(220,0)	(280,6)	
L1D -237>	(1,0)	(1,0)	(1,0)	(1,0)	(1,0)	(1,0)	(1,0)	(1,0)	(1,0)	(1,0)	(1,0)	(1,0)	(1,0)	(1,0)	(1,0)	(1,0)	
L1D -236>	(66,1)	(28,0)	(338,0)	(330,0)	(96,0)	(316,2)	(312,1)	(234,0)	(70,0)	(200,0)	(278,112)	(264,25)	(224,4)	(84,1)	(318,2)	(64,0)	
L1D -235>	(302,77)	(72,0)	(5,18)	(41,5)	(1,0)	(1,0)	(1,0)	(1,0)	(1,0)	(1,0)	(1,0)	(1,0)	(1,0)	(1,0)	(1,0)	(1,0)	
L1D -234>	(318,89)	(104,1)	(246,0)	(114,36)	(220,3)	(14,0)	(223,0)	(210,0)	(244,1)	(146,17)	(64,0)	(-28,30)	(-94,1)	(196,0)	(4,0)	(66,0)	
L1D -233>	(303,1)	(1,1)	(1,0)	(1,0)	(1,0)	(1,0)	(1,0)	(1,0)	(1,0)	(1,0)	(1,0)	(1,0)	(1,0)	(1,0)	(1,0)	(1,0)	
L1D -232>	(324,21)	(126,34)	(260,4)	(338,10)	(92,12)	(228,10)	(8,6)	(5,4)	(192,3)	(-92,17)	(-88,3)	(88,3)	(28,51)	(206,9)	(120,7)	(1,1)	
L1D -231>	(3,7)	(-1,1)	(1,2)	(1,0)	(1,0)	(1,0)	(1,0)	(1,0)	(1,0)	(1,0)	(1,0)	(1,0)	(1,0)	(1,0)	(1,0)	(1,0)	
L1D -230>	(228,8)	(115,111)	(338,5)	(14,71)	(-84,4)	(-8,1)	(-12,9)	(-10,1)	(-78,1)	(44,86)	(214,7)	(8,82)	(248,9)	(102,1)	(190,9)	(304,5)	
L1D -229>	(4,4)	(-10,57)	(1,1)	(1,0)	(1,0)	(1,0)	(1,0)	(1,0)	(1,0)	(1,0)	(1,0)	(1,0)	(1,0)	(1,0)	(1,0)	(1,0)	
L1D -228>	(144,1)	(152,1)	(314,5)	(250,14)	(226,7)	(-124,2)	(302,3)	(252,2)	(300,1)	(96,8)	(128,5)	(162,110)	(200,2)	(208,1)	(-40,6)	(206,118)	
L1D -227>	(224,1)	(180,2)	(-1,1)	(1,0)	(1,0)	(1,0)	(1,0)	(1,0)	(1,0)	(1,0)	(1,0)	(1,0)	(1,0)	(1,0)	(1,0)	(1,0)	
L1D -226>	(122,101)	(-24,0)	(-28,0)	(62,0)	(70,0)	(324,0)	(176,0)	(54,0)	(-134,99)	(164,0)	(1,0)	(1,0)	(1,0)	(1,0)	(1,0)	(1,0)	
L1D -225>	(318,1)	(234,4)	(2,1)	(1,0)	(1,0)	(1,0)	(1,0)	(1,0)	(1,0)	(1,0)	(1,0)	(1,0)	(1,0)	(1,0)	(1,0)	(1,0)	
L1D -224>	(176,0)	(-94,0)	(78,11)	(134,0)	(68,0)	(132,0)	(170,0)	(-96,3)	(318,0)	(250,0)	(334,0)	(-64,0)	(142,0)	(-102,78)	(28,0)	(-16,0)	
L1D -223>	(1,0)	(1,0)	(1,0)	(1,0)	(1,0)	(1,0)	(1,0)	(1,0)	(1,0)	(1,0)	(1,0)	(1,0)	(1,0)	(1,0)	(1,0)	(1,0)	
L1D -222>	(120,7)	(290,77)	(-80,3)	(-22,1)	(244,1)	(30,4)	(112,4)	(232,1)	(332,65)	(328,1)	(-100,61)	(123,0)	(258,0)	(10,1)	(-10,1)	(80,60)	
L1D -221>	(14,29)	(-46,4)	(1,0)	(1,0)	(1,0)	(1,0)	(1,0)	(1,0)	(1,0)	(1,0)	(1,0)	(1,0)	(1,0)	(1,0)	(1,0)	(1,0)	
L1D -220>	(-10,41)	(162,100)	(98,13)	(5,1)	(-80,1)	(2,3)	(264,3)	(254,3)	(84,3)	(166,62)	(-14,3)	(48,27)	(234,17)	(-106,10)	(8,7)	(194,3)	
L1D -219>	(122,66)	(221,2)	(-1,0)	(14,0)	(2,0)	(1,0)	(1,0)	(1,0)	(1,0)	(1,0)	(1,0)	(1,0)	(1,0)	(1,0)	(1,0)	(1,0)	
L1D -218>	(232,84)	(8,1)	(210,0)	(-94,0)	(114,0)	(60,0)	(64,1)	(154,0)	(66,0)	(249,0)	(314,0)	(149,0)	(286,2)	(234,2)	(212,1)	(-102,0)	
L1D -217>	(-58,1)	(32,1)	(154,1)	(1,0)	(1,0)	(1,0)	(1,0)	(1,0)	(1,0)	(1,0)	(1,0)	(1,0)	(1,0)	(1,0)	(1,0)	(1,0)	
L1D -216>	(212,48)	(66,8)	(-10,3)	(34,3)	(256,2)	(193,114)	(2,25)	(233,2)	(-24,12)	(115,13)	(158,29)	(80,18)	(94,5)	(222,120)	(176,22)	(302,29)	
L1D -215>	(1,5)	(201,2)	(215,2)	(405,1)	(0,1)	(365,1)	(98,33)	(345,1)	(2,1)	(1,0)	(1,0)	(1,0)	(1,0)	(1,0)	(1,0)	(1,0)	
L1D -214>	(212,1)	(28,6)	(300,0)	(78,1)	(160,0)	(236,3)	(112,1)	(18,1)	(94,0)	(20,0)	(-100,0)	(208,3)	(188,1)	(138,1)	(222,72)	(115,2)	
L1D -213>	(95,5)	(102,7)	(361,3)	(351,3)	(319,2)	(167,1)	(1,0)	(1,0)	(1,0)	(1,0)	(1,0)	(1,0)	(1,0)	(1,0)	(1,0)	(1,0)	
L1D -212>	(208,58)	(272,0)	(9,0)	(168,66)	(94,0)	(150,2)	(-116,6)	(304,6)	(8,1)	(-22,1)	(238,62)	(174,0)	(28,0)	(160,0)	(-76,0)	(214,4)	
L1D -211>	(1,6)	(175,60)	(-1,2)	(2,7)	(24,17)	(5,1)	(-10,39)	(3,3)	(0,1)	(8,1)	(4,2)	(1,0)	(1,0)	(1,0)	(1,0)	(1,0)	
L1D -210>	(175,7)	(28,68)	(112,1)	(96,2)	(-14,87)	(270,1)	(14,88)	(-142,2)	(150,0)	(-16,0)	(156,0)	(174,1)	(-88,0)	(118,13)	(130,2)	(24,0)	
L1D -209>	(-12,32)	(5,1)	(138,5)	(2,1)	(209,1)	(1,0)	(1,0)	(1,0)	(1,0)	(1,0)	(1,0)	(1,0)	(1,0)	(1,0)	(1,0)	(1,0)	
L1D -208>	(-14,2)	(98,3)	(40,21)	(258,7)	(270,9)	(249,2)	(94,7)	(41,100)	(218,5)	(-88,2)	(5,2)	(9,57)	(344,0)	(264,5)	(49,4)	(-34,5)	
L1D -207>	(38,1)	(40,16)	(9,99)	(208,0)	(0,0)	(-60,0)	(4,3)	(110,3)	(1,0)	(1,0)	(1,0)	(1,0)	(1,0)	(1,0)	(1,0)	(1,0)	
L1D -206>	(28,15)	(56,13)	(-8,22)	(126,11)	(198,5)	(236,11)	(3,48)	(102,2)	(-14,2)	(14,2)	(8,6)	(10,1)	(94,1)	(43,3)	(48,12)	(-24,82)	
L1D -205>	(9,5)	(128,1)	(5,3)	(1,1)	(2,1)	(277,6)	(13,1)	(1,0)	(1,0)	(1,0)	(1,0)	(1,0)	(1,0)	(1,0)	(1,0)	(1,0)	
L1D -204>	(88,0)	(8,73)	(200,0)	(-60,0)	(5,0)	(28,0)	(76,0)	(-14,0)	(240,3)	(14,0)	(232,23)	(296,0)	(41,4)	(102,0)	(158,0)	(4,0)	
L1D -203>	(41,70)	(5,10)	(40,107)	(4,0)	(9,96)	(208,0)	(-4,1)	(1,0)	(1,0)	(1,0)	(1,0)	(1,0)	(1,0)	(1,0)	(1,0)	(1,0)	
L1D -202>	(242,2)	(308,3)	(106,5)	(4,63)	(42,115)	(44,2)	(9,93)	(312,1)	(-102,1)	(6,98)	(148,0)	(128,0)	(330,1)	(210,86)	(243,0)	(-28,1)	
L1D -201>	(9,18)	(143,1)	(177,1)	(200,1)	(25,1)	(1,0)	(1,0)	(1,0)	(1,0)	(1,0)	(1,0)	(1,0)	(1,0)	(1,0)	(1,0)	(1,0)	
L1D -200>	(28,1)	(162,0)	(215,0)	(80,87)	(1,0)	(-38,2)	(174,0)	(-80,0)	(198,0)	(126,0)	(94,43)	(40,0)	(14,1)	(4,0)	(-62,2)	(258,0)	
L1D -199>	(40,1)	(5,64)	(23,0)	(41,14)	(197,0)	(198,0)	(-1,0)	(9,0)	(1,0)	(1,0)	(1,0)	(1,0)	(1,0)	(1,0)	(1,0)	(1,0)	
L1D -198>	(160,2)	(234,13)	(188,1)	(4,4)	(260,0)	(202,0)	(224,0)	(-9,1)	(150,0)	(40,81)	(177,0)	(-1,0)	(244,0)	(272,2)	(216,3)	(-84,5)	
L1D -197>	(0,76)	(2,0)	(-10,0)	(177,0)	(9,0)	(21,0)	(1,1)	(1,0)	(1,0)	(1,0)	(1,0)	(1,0)	(1,0)	(1,0)	(1,0)	(1,0)	
L1D -196>	(314,0)	(38,15)	(326,1)	(90,0)	(236,1)	(-68,1)	(228,2)	(-78,1)	(84,78)	(1,0)	(130,5)	(278,1)	(12,32)	(-76,2)	(192,3)	(238,1)	
L1D -195>	(195,77)	(0,0)	(48,76)	(19,1)	(197,0)	(1,0)	(1,0)	(1,0)	(1,0)	(1,0)	(1,0)	(1,0)	(1,0)	(1,0)	(1,0)	(1,0)	
L1D -194>	(8,1)	(190,3)	(308,9)	(104,122)	(5,14)	(181,5)	(150,7)	(41,28)	(12,8)	(152,7)	(-72,9)	(16,4)	(124,4)	(9,7)	(218,8)	(-22,2)	
L1D -193>	(224,9)	(-1,1)	(1,15)	(67,1)	(193,5)	(13,105)	(17,1)	(233,0)	(385,0)	(345,0)	(177,1)	(234,0)	(1,0)	(1,0)	(1,0)	(1,0)	
L1D -192>	(66,68)	(16,1)	(-42,0)	(130,0)	(80,0)	(246,0)	(192,0)	(342,0)	(195,0)	(190,0)	(193,0)	(-24,0)	(-23,0)	(74,0)	(17,0)	(156,8)	
L1D -191>	(162,1)	(196,1)	(190,1)	(16,5)	(177,7)	(15,8)	(179,1)	(1,0)	(1,0)	(1,0)	(1,0)	(1,0)	(1,0)	(1,0)	(1,0)	(1,0)	
L1D -190>	(188,118)	(179,1)	(132,0)	(208,4)	(254,12)	(318,1)	(84,2)	(-10,0)	(189,0)	(13,0)	(128,8)	(136,9)	(177,0)	(14,2)	(6,0)	(106,1)	
L1D -189>	(1,9)	(13,8)	(188,1)	(190,3)	(187,1)	(8,1)	(4,1)	(-9,2)	(1,0)	(1,0)	(1,0)	(1,0)	(1,0)	(1,0)	(1,0)	(1,0)	
L1D -188>	(106,1)	(44,8)	(164,6)	(20,3)	(260,3)	(262,8)	(100,105)	(228,5)	(190,1)	(-92,1)	(-46,5)	(28,26)	(150,9)	(-76,76)	(286,33)	(254,2)	
L1D -187>	(13,112)	(-12,26)	(177,2)	(8,3)	(11,1)	(44,0)	(9,5)	(-96,5)	(10,0)	(176,0)	(12,0)	(1,0)	(1,0)	(1,0)	(1,0)	(1,0)	
L1D -186>	(10,2)	(-122,31)	(-76,3)	(-46,10)	(212,67)	(-22,1)	(185,2)	(214,1)	(1,1)	(112,0)	(-2,0)	(2,1)	(160,0)	(267,121)	(102,19)	(-44,1)	
L1D -185>	(8,0)	(10,0)	(184,0)	(215,0)	(106,65)	(185,0)	(138,1)	(9,0)	(177,0)	(1,2)	(1,0)	(1,0)	(1,0)	(1,0)	(1,0)	(1,0)	
L1D -184>	(110,124)	(210,1)	(-46,3)	(72,6)	(-8,3)	(194,21)	(12,13)	(68,9)	(180,111)	(-16,3)	(-108,3)	(118,2)	(242,4)	(212,8)	(-64,1)	(-12,1)	
L1D -183>	(38,14)	(122,20)	(8,10)	(190,1)	(5,37)	(7,1)	(9,3)	(177,1)	(161,7)	(179,1)	(-1,2)	(1,0)	(1,0)	(1,0)	(1,0)	(1,0)	
L1D -182>	(132,1)	(-36,113)	(106,4)	(-132,110)	(-66,31)	(14,1)	(-136,4)	(-2,1)	(180,1)	(-46,8)	(160,3)	(24,1)	(161,1)	(38,44)	(-1,1)	(208,0)	
L1D -181>	(87,4)	(-1,90)	(213,12)	(301,10)	(180,1)	(175,8)	(361,26)	(265,108)	(185,2)	(385,4)	(351,6)	(67,7)	(160,17)	(95,37)	(159,4)	(293,13)	
L1D -180>	(156,4)	(8,97)	(66,18)	(175,1)	(82,9)	(-138,66)	(-132,2)	(50,1)	(-30,92)	(306,1)	(208,99)	(160,24)	(112,94)	(236,1)	(13,51)	(178,5)	
L1D -179>	(115,7)	(-40,80)	(3,3)	(171,3)	(175,4)	(166,1)	(174,8)	(176,4)	(1,1)	(163,3)	(173,2)	(177,4)	(165,2)	(-2,2)	(170,2)	(168,1)	
L1D -178>	(102,67)	(-2,0)	(277,0)	(-28,1)	(136,66)	(175,1)	(48,7)	(162,0)	(-3,0)	(164,0)	(174,0)	(-88,0)	(177,0)	(204,1)	(176,0)	(270,1)	
L1D -177>	(244,26)	(26,2)	(174,5)	(168,5)	(10,1)	(171,13)	(175,18)	(182,1)	(173,16)	(-1,15)	(-15,4)	(172,4)	(170,8)	(164,8)	(215,4)	(-3,5)	
L1D -176>	(268,6)	(4,6)	(175,4)	(174,2)	(193,1)	(191,1)	(170,1)	(172,4)	(347,101)	(2,1)	(345,2)	(173,4)	(344,1)	(348,2)	(178,4)	(196,1)	
L1D -175>	(4,64)	(12,7)	(172,13)	(3,3)	(176,1)	(185,0)	(-1,1)	(190,0)	(-170,1)	(1,0)	(-8,3)	(343,0)	(169,0)	(2,4)	(-169,4)	(180,0)	
L1D -174>	(32,20)	(13,1)	(364,1)	(4,19)	(-172,67)	(173,127)	(344,11)	(2,3)	(-169,1)	(-170,2)	(3,45)	(342,2)	(172,2)	(-173,1)	(-1,1)	(343,6)	
L1D -173>	(1,22)	(344,56)	(170,68)	(174,18)	(3,3)	(-171,11)	(173,60)	(175,1)	(-172,28)	(-173,14)	(343,10)	(-1,14)	(172,101)	(345,2)	(-3,3)	(171,4)	
L1D -172>	(-173,19)	(-90,5)	(-1,8)	(-3,13)	(-169,1)	(170,5)	(173,118)	(341,1)	(345,27)	(171,39)	(1,13)	(169,30)	(-172,13)	(2,1)	(-171,2)	(-4,1)	
L1D -171>	(126,13)	(170,88)	(0,17)	(-169,1)	(172,96)	(173,33)	(-173,86)	(344,28)	(175,2)	(-172,40)	(-1,110)	(168,18)	(-2,39)	(-3,17)	(1,63)	(-4,6)	
L1D -170>	(172,60)	(342,8)	(-4,5)	(-2,1)	(173,89)	(-110,15)	(-3,8)	(-1,35)	(-172,33)	(-22,1)	(180,17)	(1,1)	(171,1)	(-173,1)	(169,9)	(174,20)	
L1D -169>	(1,1)	(174,0)	(-1,23)	(171,66)	(172,0)	(168,1)	(-171,0)	(97,0)	(-172,6)	(341,0)	(-4,0)	(-2,0)	(173,1)	(76,0)	(175,0)	(180,0)	
L1D -168>	(9,3)	(112,1)	(172,50)	(-172,2)	(158,113)	(-4,5)	(32,0)	(344,1)	(-20,0)	(337,5)	(-8,1)	(40,4)	(-3,0)	(-176,2)	(180,0)	(182,1)	
L1D -167>	(0,7)	(1,25)	(175,4)	(41,3)	(40,20)	(166,80)	(95,54)	(9,98)	(-9,3)	(20,15)	(-172,30)	(-1,3)	(5,4)	(172,1)	(361,16)	(169,6)	
L1D -166>	(1,1)	(120,1)	(168,0)	(26,1)	(214,98)	(220,5)	(-1,1)	(38,0)	(-46,0)	(-181,1)	(-106,2)	(136,0)	(114,2)	(167,0)	(360,0)	(8,0)	
L1D -165>	(0,9)	(206,4)	(342,2)	(166,3)	(1,49)	(-1,109)	(172,92)	(175,7)	(344,2)	(9,3)	(72,7)	(-172,25)	(-2,20)	(-11,2)	(246,3)	(189,2)	
L1D -164>	(114,72)	(62,1)	(120,0)	(154,0)	(212,0)	(200,0)	(13,4)	(170,0)	(165,0)	(-11,0)	(-12,1)	(166,0)	(1,0)	(1,0)	(1,0)	(1,0)	
L1D -163>	(9,70)	(40,26)	(1,53)	(5,0)	(-13,0)	(165,0)	(-20,2)	(-72,0)	(175,0)	(187,0)	(164,0)	(171,5)	(-9,0)	(-4,0)	(1,0)	(1,0)	
L1D -162>	(40,8)	(238,98)	(152,2)	(4,80)	(9,87)	(-148,4)	(-1,1)	(164,1)	(-58,1)	(-64,4)	(11,4)	(-38,92)	(163,1)	(-2,21)	(-4,2)	(136,2)	
L1D -161>	(32,1)	(-110,7)	(9,10)	(20,17)	(162,4)	(-15,3)	(175,2)	(21,3)	(172,2)	(202,5)	(163,8)	(1,1)	(191,0)	(5,66)	(44,24)	(49,3)	
L1D -160>	(175,0)	(-13,0)	(2,1)	(-242,0)	(-64,125)	(158,0)	(1,0)	(234,1)	(188,0)	(156,0)	(246,1)	(12,0)	(-8,0)	(-98,1)	(-100,121)	(28,0)	
L1D -159>	(9,6)	(5,3)	(41,67)	(157,1)	(161,1)	(3,2)	(158,7)	(160,0)	(95,13)	(153,0)	(174,0)	(-2,0)	(-3,0)	(1,0)	(1,0)	(1,0)	
L1D -158>	(66,4)	(-64,4)	(100,1)	(41,18)	(20,1)	(-3,4)	(84,1)	(48,2)	(-164,1)	(5,15)	(150,2)	(162,26)	(188,105)	(40,47)	(152,7)	(144,2)	
L1D -157>	(-2,4)	(0,2)	(-126,8)	(1,5)	(-1,6)	(118,4)	(4,6)	(157,1)	(160,2)	(-19,2)	(21,1)	(174,1)	(-121,4)	(-9,3)	(-16,2)	(1,0)	
L1D -156>	(28,6)	(232,1)	(-26,6)	(88,1)	(64,1)	(102,3)	(-3,1)	(188,2)	(-100,89)	(104,7)	(18,4)	(242,72)	(-6,2)	(159,1)	(136,62)	(142,2)	
L1D -155>	(-21,2)	(-20,4)	(157,7)	(1,0)	(1,0)	(1,0)	(1,0)	(1,0)	(1,0)	(1,0)	(1,0)	(1,0)	(1,0)	(1,0)	(1,0)	(1,0)	
L1D -154>	(-102,13)	(210,114)	(34,113)	(138,2)	(140,6)	(5,3)	(96,14)	(-12,100)	(93,2)	(9,3)	(260,1)	(8,3)	(122,7)	(41,39)	(124,2)	(118,5)	
L1D -153>	(93,55)	(154,2)	(157,4)	(91,9)	(87,2)	(158,39)	(138,2)	(152,3)	(94,3)	(153,3)	(90,1)	(-22,1)	(78,4)	(150,1)	(-23,1)	(89,2)	
L1D -152>	(-122,80)	(96,2)	(2,0)	(91,0)	(70,0)	(88,0)	(390,0)	(-136,1)	(164,0)	(92,1)	(143,0)	(-78,0)	(93,0)	(226,1)	(145,0)	(89,0)	
L1D -151>	(91,13)	(150,5)	(146,3)	(1,1)	(90,2)	(-96,1)	(-5,23)	(88,1)	(140,5)	(-20,46)	(13,2)	(142,1)	(154,2)	(89,3)	(149,2)	(-21,15)	
L1D -150>	(149,23)	(-50,1)	(-46,2)	(210,4)	(258,1)	(138,3)	(142,1)	(206,1)	(220,3)	(90,2)	(88,1)	(42,2)	(144,1)	(93,1)	(352,113)	(28,1)	
L1D -149>	(-44,1)	(-10,2)	(139,0)	(-1,0)	(138,0)	(11,0)	(88,87)	(-154,2)	(15,2)	(-8,4)	(106,0)	(90,0)	(12,0)	(13,1)	(1,0)	(1,0)	
L1D -148>	(326,97)	(139,1)	(133,1)	(216,8)	(-122,115)	(148,1)	(258,2)	(-2,1)	(212,11)	(304,1)	(-100,2)	(147,1)	(160,1)	(56,9)	(206,0)	(218,1)	
L1D -147>	(-1,3)	(146,5)	(1,17)	(-121,3)	(154,6)	(-3,1)	(143,2)	(262,11)	(-12,118)	(5,90)	(-125,55)	(148,3)	(133,3)	(89,4)	(91,2)	(217,4)	
L1D -146>	(-100,56)	(236,2)	(145,93)	(154,1)	(106,5)	(148,48)	(-28,1)	(48,7)	(1,5)	(-84,4)	(-76,3)	(30,6)	(89,1)	(139,2)	(104,20)	(2,2)	
L1D -145>	(0,77)	(104,0)	(141,0)	(82,0)	(154,0)	(-1,1)	(103,5)	(7,0)	(139,0)	(73,0)	(212,0)	(133,0)	(6,0)	(1,0)	(1,0)	(1,0)	
L1D -144>	(38,82)	(101,0)	(-170,12)	(236,83)	(-50,1)	(-10,1)	(-72,3)	(141,0)	(66,64)	(102,0)	(-88,0)	(36,0)	(10,0)	(210,0)	(143,2)	(1,1)	
L1D -143>	(-8,1)	(154,2)	(113,5)	(142,4)	(-1,2)	(91,2)	(140,1)	(100,1)	(98,1)	(-21,126)	(132,3)	(94,1)	(129,0)	(144,1)	(103,1)	(137,0)	
L1D -142>	(154,7)	(100,2)	(-178,67)	(156,1)	(99,1)	(98,1)	(18,2)	(-96,0)	(93,0)	(86,0)	(137,2)	(-76,2)	(136,4)	(-6,3)	(32,1)	(232,2)	
L1D -141>	(1,95)	(90,3)	(-1,3)	(99,6)	(95,2)	(98,4)	(5,3)	(137,6)	(3,11)	(139,24)	(130,3)	(128,4)	(103,3)	(83,1)	(100,7)	(136,7)	
L1D -140>	(150,18)	(-92,6)	(26,66)	(-21,61)	(137,1)	(13,0)	(96,3)	(102,5)	(-50,27)	(175,1)	(184,1)	(-25,1)	(89,0)	(170,3)	(-14,52)	(50,45)	
L1D -139>	(-4,58)	(1,80)	(172,0)	(-1,4)	(132,0)	(99,0)	(12,3)	(137,1)	(-25,8)	(88,0)	(136,2)	(138,1)	(143,0)	(135,1)	(154,0)	(130,0)	
L1D -138>	(136,20)	(139,17)	(-98,94)	(236,105)	(140,23)	(232,121)	(-6,125)	(84,7)	(137,8)	(-36,1)	(66,11)	(254,34)	(-181,9)	(138,12)	(-154,2)	(294,2)	
L1D -137>	(142,7)	(-8,23)	(95,2)	(13,2)	(96,2)	(-3,2)	(-1,4)	(1,5)	(232,99)	(139,15)	(150,3)	(152,1)	(9,9)	(12,19)	(138,64)	(3,7)	
L1D -136>	(-180,122)	(-13,119)	(1,5)	(254,1)	(2,1)	(-10,2)	(42,7)	(14,1)	(232,2)	(126,2)	(28,1)	(44,4)	(-108,3)	(142,1)	(-94,4)	(136,1)	
L1D -135>	(124,3)	(-153,6)	(128,5)	(136,1)	(83,1)	(94,2)	(137,5)	(130,1)	(92,1)	(133,9)	(134,4)	(1,3)	(2,61)	(3,1)	(154,2)	(96,2)	
L1D -134>	(-13,75)	(133,5)	(131,1)	(128,5)	(126,1)	(129,1)	(130,4)	(118,2)	(162,60)	(216,2)	(132,4)	(111,2)	(22,56)	(298,82)	(92,4)	(-1,6)	
L1D -133>	(132,28)	(133,8)	(131,16)	(-1,30)	(55,2)	(146,2)	(129,3)	(91,31)	(119,2)	(134,2)	(127,1)	(90,3)	(140,3)	(228,5)	(73,5)	(1,49)	
L1D -132>	(134,1)	(276,1)	(145,1)	(-82,13)	(82,98)	(-108,6)	(133,3)	(110,80)	(128,5)	(-42,4)	(70,73)	(100,1)	(264,1)	(90,1)	(120,1)	(-73,2)	
L1D -131>	(-127,7)	(130,14)	(-1,6)	(89,13)	(129,10)	(9,17)	(2,3)	(132,6)	(4,12)	(126,7)	(133,9)	(125,4)	(124,2)	(154,4)	(146,3)	(91,4)	
L1D -130>	(14,3)	(-92,8)	(-16,68)	(12,1)	(56,76)	(117,0)	(188,66)	(123,0)	(126,0)	(132,1)	(268,2)	(20,5)	(128,1)	(10,2)	(88,1)	(-6,0)	
L1D -129>	(154,5)	(46,35)	(125,3)	(130,2)	(-9,3)	(98,2)	(132,5)	(134,4)	(131,12)	(127,3)	(87,2)	(119,3)	(121,1)	(-3,1)	(71,1)	(133,8)	
L1D -128>	(142,48)	(-1,67)	(70,5)	(80,0)	(14,0)	(318,1)	(314,1)	(133,1)	(22,0)	(16,2)	(132,1)	(226,0)	(266,0)	(126,0)	(87,0)	(-54,3)	
L1D -127>	(166,117)	(41,79)	(5,8)	(133,1)	(129,1)	(38,1)	(127,1)	(145,2)	(87,2)	(-140,1)	(9,20)	(131,1)	(116,0)	(184,4)	(125,0)	(122,2)	
L1D -126>	(125,6)	(-1,108)	(133,1)	(70,13)	(84,6)	(24,51)	(119,6)	(172,67)	(5,2)	(9,14)	(111,6)	(4,22)	(-46,79)	(123,3)	(134,1)	(178,3)	
L1D -125>	(120,1)	(1,1)	(83,4)	(124,6)	(123,3)	(134,1)	(8,111)	(3,7)	(122,4)	(104,1)	(4,21)	(226,5)	(240,5)	(-1,3)	(2,1)	(121,1)	
L1D -124>	(5,1)	(216,110)	(-13,117)	(-21,1)	(130,95)	(125,1)	(156,1)	(-1,1)	(-6,1)	(4,1)	(80,1)	(220,2)	(-26,2)	(117,1)	(119,1)	(112,4)	
L1D -123>	(123,6)	(332,79)	(5,9)	(81,20)	(-1,10)	(1,60)	(4,29)	(25,2)	(236,6)	(41,90)	(132,4)	(124,12)	(131,3)	(125,5)	(2,3)	(83,2)	
L1D -122>	(78,10)	(40,44)	(218,70)	(-96,74)	(41,8)	(9,31)	(5,68)	(14,1)	(-28,13)	(-94,68)	(128,1)	(332,73)	(44,61)	(150,49)	(180,63)	(154,68)	
L1D -121>	(80,7)	(44,1)	(-27,103)	(4,11)	(116,1)	(9,63)	(118,1)	(-26,2)	(-4,60)	(-3,3)	(236,1)	(120,6)	(76,2)	(122,1)	(126,2)	(79,3)	
L1D -120>	(145,1)	(24,125)	(119,1)	(352,3)	(162,2)	(146,3)	(-174,11)	(62,2)	(133,1)	(104,1)	(-94,5)	(130,1)	(36,3)	(48,2)	(80,1)	(41,3)	
L1D -119>	(-1,2)	(134,0)	(25,67)	(120,1)	(78,0)	(2,1)	(125,1)	(117,2)	(132,0)	(116,1)	(123,1)	(124,1)	(115,0)	(122,1)	(77,2)	(73,0)	
L1D -118>	(-1,9)	(-102,71)	(117,11)	(1,5)	(149,6)	(226,1)	(114,5)	(116,4)	(34,2)	(119,2)	(-88,6)	(144,12)	(2,7)	(41,60)	(-66,3)	(68,91)	
L1D -117>	(84,2)	(-39,36)	(5,21)	(116,8)	(158,2)	(1,27)	(118,3)	(-9,13)	(75,11)	(117,1)	(114,5)	(40,21)	(35,48)	(121,14)	(-3,102)	(-207,6)	
L1D -116>	(118,98)	(218,6)	(122,17)	(-1,2)	(-102,1)	(74,5)	(109,2)	(-68,1)	(111,2)	(212,5)	(66,1)	(24,1)	(110,1)	(117,5)	(216,3)	(2,1)	
L1D -115>	(87,78)	(118,1)	(120,0)	(-1,0)	(116,0)	(55,5)	(-18,0)	(2,0)	(117,0)	(73,1)	(101,1)	(185,0)	(-41,0)	(214,0)	(1,0)	(1,0)	
L1D -114>	(130,96)	(220,1)	(-42,1)	(-94,70)	(111,7)	(44,1)	(-96,3)	(120,0)	(16,1)	(-66,3)	(82,2)	(110,0)	(76,2)	(112,0)	(122,0)	(-14,1)	
L1D -113>	(111,1)	(9,0)	(114,0)	(5,19)	(2,2)	(25,0)	(41,91)	(84,42)	(42,11)	(118,1)	(152,2)	(81,0)	(117,2)	(180,0)	(116,0)	(1,0)	
L1D -112>	(-220,7)	(-122,60)	(175,74)	(-88,13)	(-56,4)	(66,3)	(145,1)	(-72,11)	(49,22)	(-100,17)	(166,4)	(64,9)	(170,3)	(-130,2)	(180,27)	(-16,19)	
L1D -111>	(0,8)	(112,3)	(-2,2)	(7,1)	(1,0)	(1,0)	(1,0)	(1,0)	(1,0)	(1,0)	(1,0)	(1,0)	(1,0)	(1,0)	(1,0)	(1,0)	
L1D -110>	(100,6)	(127,95)	(111,6)	(-48,1)	(302,84)	(-20,4)	(134,2)	(234,12)	(180,5)	(-98,4)	(118,114)	(218,3)	(262,4)	(-108,95)	(-16,90)	(-32,4)	
L1D -109>	(179,35)	(204,66)	(109,1)	(-2,5)	(-40,2)	(222,2)	(112,1)	(1,4)	(2,1)	(108,1)	(82,1)	(1,0)	(1,0)	(1,0)	(1,0)	(1,0)	
L1D -108>	(-152,1)	(118,113)	(210,87)	(-8,1)	(-30,1)	(-2,1)	(96,36)	(82,71)	(-136,1)	(290,4)	(2,1)	(74,4)	(-242,5)	(212,4)	(324,4)	(15,7)	
L1D -107>	(49,1)	(1,2)	(52,1)	(-1,0)	(24,0)	(65,119)	(43,0)	(-4,0)	(2,0)	(-19,1)	(-15,0)	(-2,0)	(1,0)	(1,0)	(1,0)	(1,0)	
L1D -106>	(76,7)	(14,1)	(10,2)	(-50,14)	(96,102)	(-94,77)	(-126,1)	(80,3)	(202,1)	(1,18)	(-6,1)	(-90,2)	(184,1)	(122,19)	(268,5)	(260,9)	
L1D -105>	(-20,77)	(7,15)	(-1,0)	(146,0)	(103,0)	(104,0)	(-2,0)	(1,0)	(1,0)	(1,0)	(1,0)	(1,0)	(1,0)	(1,0)	(1,0)	(1,0)	
L1D -104>	(96,75)	(144,1)	(12,1)	(136,15)	(103,1)	(101,2)	(-2,4)	(134,2)	(140,1)	(200,2)	(314,1)	(-1,3)	(72,1)	(145,3)	(-122,1)	(66,16)	
L1D -103>	(-2,2)	(15,94)	(63,15)	(144,12)	(143,4)	(105,1)	(-1,6)	(6,11)	(3,1)	(104,1)	(102,5)	(169,5)	(0,4)	(146,1)	(134,1)	(103,1)	
L1D -102>	(86,113)	(130,1)	(116,23)	(-36,57)	(184,11)	(-234,10)	(-80,17)	(74,25)	(326,4)	(234,60)	(178,7)	(4,2)	(58,7)	(212,2)	(256,3)	(66,82)	
L1D -101>	(146,3)	(113,2)	(-41,1)	(-121,23)	(136,2)	(144,2)	(145,12)	(1,2)	(-1,2)	(142,8)	(102,12)	(201,1)	(0,1)	(141,5)	(2,17)	(100,7)	
L1D -100>	(308,119)	(220,87)	(28,2)	(108,120)	(11,1)	(14,3)	(-4,14)	(232,1)	(98,1)	(-128,3)	(1,3)	(288,96)	(-8,67)	(276,2)	(-146,1)	(-52,1)	
L1D -99>	(-4,43)	(9,12)	(-2,5)	(134,1)	(-168,3)	(103,4)	(95,4)	(141,9)	(101,25)	(13,4)	(142,5)	(133,2)	(11,11)	(100,3)	(145,3)	(-123,79)	
L1D -98>	(-167,4)	(96,3)	(-22,126)	(84,26)	(-72,4)	(178,5)	(236,5)	(101,1)	(-112,29)	(66,9)	(-2,8)	(291,4)	(-188,14)	(-92,61)	(194,3)	(170,3)	
L1D -97>	(146,1)	(-186,15)	(1,1)	(96,1)	(143,1)	(-3,1)	(8,7)	(101,1)	(-170,126)	(-7,8)	(141,2)	(140,2)	(-122,1)	(68,2)	(128,0)	(32,3)	
L1D -96>	(132,7)	(1,10)	(20,105)	(208,5)	(16,12)	(-112,12)	(-63,65)	(17,2)	(-16,2)	(10,2)	(216,102)	(-98,20)	(130,95)	(-4,1)	(100,87)	(314,3)	
L1D -95>	(99,66)	(17,2)	(-2,3)	(29,8)	(97,3)	(361,11)	(11,32)	(125,3)	(-29,2)	(146,1)	(96,0)	(-37,1)	(9,7)	(263,3)	(143,3)	(150,15)	
L1D -94>	(2,70)	(-4,8)	(28,61)	(51,4)	(-70,81)	(198,9)	(123,1)	(52,2)	(1,4)	(-32,43)	(135,1)	(312,1)	(216,6)	(154,5)	(-6,23)	(30,3)	
L1D -93>	(-2,93)	(93,60)	(0,89)	(124,6)	(90,33)	(51,27)	(142,3)	(92,8)	(144,6)	(52,3)	(9,8)	(127,3)	(94,62)	(1,8)	(134,5)	(55,1)	
L1D -92>	(-30,76)	(24,40)	(-293,4)	(96,75)	(20,70)	(28,20)	(93,7)	(-50,8)	(-28,5)	(51,2)	(52,13)	(210,52)	(84,50)	(-14,1)	(90,17)	(26,12)	
L1D -91>	(146,2)	(149,1)	(78,1)	(49,1)	(8,106)	(-7,27)	(-1,1)	(1,5)	(75,1)	(48,1)	(92,1)	(79,1)	(2,1)	(88,2)	(-3,1)	(51,4)	
L1D -90>	(91,1)	(0,2)	(-8,19)	(260,2)	(87,1)	(1,1)	(254,5)	(220,60)	(314,1)	(93,9)	(-34,69)	(-4,1)	(184,5)	(120,3)	(133,1)	(129,1)	
L1D -89>	(0,50)	(47,9)	(90,10)	(148,4)	(130,9)	(85,6)	(89,14)	(4,23)	(84,24)	(-1,18)	(91,6)	(10,57)	(132,15)	(146,12)	(15,1)	(-8,81)	
L1D -88>	(48,43)	(1,7)	(146,1)	(28,54)	(-124,2)	(-246,4)	(-9,80)	(-120,47)	(242,2)	(72,48)	(-12,42)	(232,8)	(0,9)	(-2,4)	(-8,3)	(-32,37)	
L1D -87>	(32,4)	(126,1)	(89,18)	(94,3)	(130,9)	(88,4)	(1,26)	(70,14)	(82,3)	(154,4)	(133,8)	(144,2)	(146,12)	(134,2)	(145,5)	(137,3)	
L1D -86>	(9,73)	(-58,77)	(-14,3)	(8,3)	(-44,7)	(10,6)	(41,116)	(54,1)	(87,1)	(-88,56)	(40,85)	(-294,71)	(-76,1)	(168,24)	(94,3)	(-26,5)	
L1D -85>	(-1,105)	(3,2)	(4,83)	(1,3)	(84,1)	(73,1)	(154,1)	(92,1)	(130,3)	(12,54)	(-2,1)	(90,1)	(80,1)	(83,1)	(44,1)	(87,1)	
L1D -84>	(172,63)	(-102,5)	(302,100)	(314,10)	(-9,14)	(-238,9)	(-236,26)	(-204,19)	(-14,2)	(87,1)	(98,10)	(18,83)	(82,10)	(291,1)	(274,1)	(13,63)	
L1D -83>	(81,66)	(-1,53)	(83,40)	(122,2)	(5,1)	(124,1)	(146,0)	(87,0)	(385,0)	(0,2)	(31,2)	(82,3)	(125,0)	(1,0)	(4,0)	(138,1)	
L1D -82>	(-3,49)	(78,16)	(8,12)	(85,1)	(60,22)	(1,55)	(-2,8)	(2,22)	(84,81)	(88,3)	(-41,7)	(-1,1)	(30,2)	(246,3)	(125,2)	(9,6)	
L1D -81>	(78,2)	(81,60)	(-4,13)	(146,1)	(4,21)	(125,1)	(134,1)	(132,1)	(83,0)	(61,1)	(5,3)	(6,1)	(126,1)	(76,0)	(-1,1)	(9,90)	
L1D -80>	(96,42)	(-2,1)	(138,82)	(318,1)	(153,1)	(188,6)	(260,41)	(83,1)	(-7,44)	(77,1)	(123,1)	(84,23)	(-130,0)	(82,7)	(1,13)	(-41,0)	
L1D -79>	(83,52)	(61,4)	(40,3)	(-14,12)	(151,1)	(19,2)	(1,115)	(78,7)	(-20,2)	(124,4)	(-1,5)	(22,9)	(-2,18)	(77,5)	(81,7)	(111,15)	
L1D -78>	(66,2)	(-41,4)	(230,2)	(18,4)	(-3,39)	(-1,13)	(122,2)	(8,2)	(-138,1)	(128,3)	(338,2)	(172,4)	(-102,2)	(-8,1)	(1,109)	(2,11)	
L1D -77>	(13,101)	(40,3)	(79,3)	(120,1)	(2,22)	(41,1)	(152,2)	(14,9)	(17,1)	(92,2)	(75,1)	(117,1)	(-4,70)	(74,1)	(5,1)	(78,4)	
L1D -76>	(-130,11)	(73,2)	(-1,3)	(-13,60)	(338,57)	(117,0)	(77,0)	(16,1)	(98,2)	(-48,64)	(75,6)	(314,3)	(134,1)	(84,0)	(-138,60)	(1,0)	
L1D -75>	(34,1)	(77,7)	(76,5)	(361,3)	(-6,3)	(118,9)	(44,9)	(134,3)	(84,69)	(35,5)	(-1,3)	(94,5)	(154,6)	(116,2)	(2,40)	(113,4)	
L1D -74>	(-112,7)	(-3,27)	(32,5)	(-128,71)	(-36,34)	(44,26)	(-2,14)	(314,59)	(6,70)	(2,3)	(72,20)	(14,3)	(111,1)	(154,1)	(61,1)	(-168,5)	
L1D -73>	(145,1)	(67,124)	(-21,3)	(-2,10)	(9,3)	(116,3)	(94,2)	(3,1)	(118,6)	(88,1)	(121,2)	(76,1)	(40,1)	(-1,3)	(-20,3)	(122,1)	
L1D -72>	(15,9)	(1,7)	(130,1)	(266,5)	(34,18)	(76,3)	(72,91)	(-7,86)	(-1,3)	(-16,65)	(26,10)	(208,2)	(-98,5)	(-92,2)	(-122,78)	(168,11)	
L1D -71>	(-3,57)	(129,1)	(-20,2)	(76,1)	(1,83)	(-10,0)	(-4,1)	(65,25)	(30,0)	(-21,1)	(-5,0)	(73,0)	(-1,1)	(10,0)	(118,1)	(-6,7)	
L1D -70>	(-70,76)	(-4,1)	(21,1)	(-188,7)	(28,76)	(384,1)	(118,6)	(-3,10)	(-7,21)	(106,0)	(72,2)	(308,1)	(336,76)	(35,58)	(-38,4)	(30,38)	
L1D -69>	(1,88)	(61,1)	(132,1)	(131,2)	(-1,1)	(27,3)	(12,110)	(134,1)	(-14,4)	(126,1)	(26,0)	(43,3)	(95,2)	(73,0)	(94,2)	(21,1)	
L1D -68>	(70,0)	(-2,47)	(308,2)	(72,68)	(1,1)	(11,2)	(69,0)	(-4,11)	(170,1)	(-6,1)	(26,2)	(-1,1)	(-222,1)	(48,4)	(114,1)	(186,2)	
L1D -67>	(-138,74)	(128,1)	(1,51)	(-3,25)	(66,1)	(-10,2)	(25,1)	(122,4)	(15,4)	(69,13)	(12,23)	(-8,9)	(-1,46)	(-6,12)	(7,0)	(42,1)	
L1D -66>	(194,104)	(21,1)	(-4,6)	(-212,12)	(92,23)	(-7,124)	(26,9)	(12,120)	(-26,127)	(96,23)	(-148,12)	(-176,80)	(20,7)	(184,110)	(298,105)	(-28,10)	
L1D -65>	(128,1)	(64,43)	(1,18)	(-116,44)	(42,8)	(66,27)	(31,16)	(43,42)	(-32,13)	(2,7)	(23,39)	(6,27)	(107,22)	(-69,11)	(13,43)	(-154,29)	
L1D -64>	(1,49)	(66,6)	(62,124)	(-5,1)	(90,88)	(-115,5)	(43,3)	(0,12)	(-136,10)	(-244,107)	(2,5)	(15,3)	(88,19)	(26,108)	(79,3)	(4,9)	
L1D -63>	(61,1)	(141,77)	(95,57)	(58,1)	(-87,0)	(-184,9)	(43,4)	(62,1)	(49,0)	(22,0)	(63,1)	(-1,2)	(21,4)	(131,0)	(1,1)	(-154,0)	
L1D -62>	(2,99)	(-32,33)	(20,1)	(56,5)	(90,17)	(118,24)	(43,3)	(48,1)	(-2,5)	(4,26)	(-8,1)	(54,5)	(58,2)	(-190,27)	(60,1)	(344,1)	
L1D -61>	(-1,100)	(-242,1)	(1,6)	(58,6)	(19,68)	(60,21)	(42,16)	(13,3)	(63,4)	(62,9)	(-122,24)	(59,54)	(343,5)	(-84,68)	(-72,5)	(43,21)	
L1D -60>	(4,16)	(-196,106)	(60,21)	(59,47)	(0,52)	(-140,91)	(62,57)	(5,5)	(-90,1)	(55,9)	(8,11)	(67,10)	(-8,121)	(57,26)	(-2,35)	(-4,20)	
L1D -59>	(63,73)	(17,68)	(0,10)	(60,22)	(49,1)	(58,46)	(-1,45)	(-8,6)	(57,17)	(47,6)	(51,10)	(1,7)	(44,6)	(-4,20)	(42,14)	(64,14)	
L1D -58>	(-42,61)	(48,14)	(16,16)	(-126,55)	(-5,5)	(-4,9)	(-58,15)	(118,18)	(-18,52)	(2,33)	(-2,69)	(59,1)	(-188,56)	(115,71)	(326,72)	(-62,42)	
L1D -57>	(43,4)	(15,13)	(56,2)	(-2,5)	(-1,66)	(-20,31)	(9,22)	(61,32)	(16,4)	(59,1)	(42,5)	(47,1)	(-23,27)	(46,2)	(8,3)	(-21,8)	
L1D -56>	(-4,2)	(16,6)	(54,1)	(39,1)	(-88,1)	(122,1)	(120,1)	(61,2)	(-94,1)	(40,1)	(14,1)	(31,1)	(43,1)	(-2,111)	(294,24)	(53,1)	
L1D -55>	(-2,124)	(13,29)	(42,4)	(15,4)	(11,2)	(52,1)	(-154,4)	(14,5)	(53,3)	(60,5)	(-18,2)	(48,1)	(133,10)	(59,1)	(5,1)	(43,25)	
L1D -54>	(12,9)	(14,3)	(318,119)	(11,6)	(-166,1)	(2,2)	(-24,4)	(-98,5)	(76,8)	(38,12)	(43,7)	(70,2)	(146,6)	(206,3)	(22,4)	(1,9)	
L1D -53>	(53,5)	(0,29)	(-1,5)	(4,87)	(56,1)	(93,2)	(11,42)	(1,9)	(-10,2)	(42,13)	(10,19)	(146,31)	(52,10)	(51,28)	(-9,3)	(43,19)	
L1D -52>	(51,24)	(-98,25)	(-46,19)	(39,1)	(-32,19)	(50,11)	(114,108)	(42,3)	(10,50)	(-1,32)	(13,20)	(-252,4)	(-104,8)	(60,2)	(43,13)	(9,5)	
L1D -51>	(-1,38)	(53,13)	(52,53)	(9,48)	(39,66)	(50,59)	(1,35)	(51,65)	(-9,10)	(49,30)	(10,1)	(-2,22)	(42,24)	(43,58)	(-4,35)	(92,15)	
L1D -50>	(51,5)	(272,79)	(-80,4)	(22,13)	(-5,10)	(56,17)	(200,43)	(14,37)	(1,4)	(-3,27)	(4,3)	(136,63)	(3,14)	(16,14)	(13,6)	(-4,1)	
L1D -49>	(-97,1)	(-9,3)	(6,10)	(1,110)	(51,7)	(7,11)	(9,10)	(43,15)	(45,4)	(-1,25)	(12,47)	(46,14)	(49,43)	(3,6)	(5,4)	(2,15)	
L1D -48>	(16,17)	(9,1)	(-9,104)	(46,13)	(-148,1)	(47,1)	(52,2)	(54,1)	(50,3)	(10,7)	(-2,17)	(-1,7)	(-80,16)	(-354,16)	(-106,15)	(48,6)	
L1D -47>	(0,113)	(7,3)	(2,15)	(51,5)	(50,2)	(35,1)	(5,1)	(-1,1)	(54,1)	(47,6)	(-99,1)	(3,3)	(30,1)	(-12,0)	(49,2)	(43,10)	
L1D -46>	(-108,16)	(41,43)	(-3,95)	(-92,18)	(43,3)	(266,17)	(46,4)	(50,18)	(14,7)	(1,35)	(-1,36)	(-5,5)	(40,7)	(-234,7)	(-8,1)	(127,6)	
L1D -45>	(-2,35)	(25,51)	(41,56)	(5,23)	(-4,61)	(-204,22)	(27,8)	(1,25)	(-1,37)	(4,28)	(39,1)	(3,37)	(47,20)	(-5,84)	(9,64)	(-9,66)	
L1D -44>	(46,61)	(37,8)	(42,17)	(43,5)	(48,13)	(4,12)	(-6,10)	(18,4)	(44,99)	(41,37)	(-1,32)	(-36,4)	(49,1)	(2,14)	(40,39)	(-3,25)	
L1D -43>	(30,5)	(-92,9)	(47,102)	(42,30)	(6,15)	(-2,43)	(39,8)	(2,4)	(1,21)	(-4,11)	(-1,19)	(40,28)	(37,8)	(41,32)	(38,12)	(34,1)	
L1D -42>	(2,91)	(-8,9)	(-3,30)	(138,17)	(40,93)	(-4,18)	(41,87)	(3,9)	(1,40)	(-1,79)	(44,66)	(42,20)	(37,11)	(53,15)	(43,63)	(-2,1)	
L1D -41>	(42,6)	(-3,10)	(-2,8)	(5,16)	(43,12)	(45,4)	(9,17)	(119,7)	(1,11)	(40,68)	(57,1)	(10,2)	(-1,8)	(49,3)	(-9,4)	(38,4)	
L1D -40>	(-2,28)	(-152,27)	(4,80)	(-202,18)	(34,26)	(43,62)	(42,5)	(39,53)	(-5,30)	(-60,7)	(9,6)	(81,3)	(-1,10)	(38,7)	(44,19)	(41,7)	
L1D -39>	(-10,2)	(40,4)	(38,106)	(-1,24)	(44,5)	(-3,6)	(35,3)	(39,19)	(42,5)	(-7,1)	(51,1)	(-20,6)	(27,2)	(6,1)	(31,3)	(41,12)	
L1D -38>	(-62,18)	(-86,63)	(-5,37)	(-350,70)	(59,1)	(-66,76)	(-18,33)	(-148,66)	(4,22)	(11,13)	(36,5)	(-3,7)	(1,85)	(32,10)	(14,79)	(-2,12)	
L1D -37>	(-4,8)	(-1,34)	(37,85)	(32,1)	(-2,30)	(0,35)	(5,21)	(-20,17)	(38,12)	(36,21)	(2,37)	(41,10)	(31,82)	(40,36)	(14,32)	(42,18)	
L1D -36>	(48,109)	(13,11)	(-67,109)	(40,40)	(66,95)	(-290,72)	(-8,11)	(36,21)	(5,1)	(-3,29)	(-4,14)	(4,3)	(-72,13)	(7,19)	(-1,69)	(56,50)	
L1D -35>	(-3,124)	(-2,1)	(35,9)	(0,1)	(29,3)	(1,5)	(-4,1)	(194,1)	(84,1)	(38,1)	(40,1)	(41,2)	(-171,2)	(58,1)	(-45,1)	(-1,56)	
L1D -34>	(34,16)	(-92,80)	(-316,2)	(4,9)	(37,2)	(-2,20)	(-106,9)	(-234,79)	(38,2)	(-1,1)	(11,8)	(-4,39)	(-7,31)	(-3,12)	(40,1)	(32,15)	
L1D -33>	(-181,1)	(32,3)	(44,2)	(39,1)	(35,3)	(33,9)	(37,114)	(-1,12)	(42,1)	(10,1)	(-7,0)	(-158,0)	(41,3)	(-8,0)	(38,0)	(36,2)	
L1D -32>	(-1,21)	(36,89)	(58,67)	(-8,14)	(14,58)	(-66,57)	(84,3)	(-2,14)	(-240,38)	(40,3)	(230,30)	(31,6)	(264,19)	(10,53)	(-100,1)	(32,23)	
L1D -31>	(-3,72)	(6,3)	(0,30)	(9,5)	(2,4)	(1,3)	(8,2)	(-5,25)	(4,1)	(-1,2)	(-9,1)	(5,3)	(-10,1)	(56,1)	(32,1)	(31,7)	
L1D -30>	(-6,7)	(8,15)	(-4,27)	(-8,12)	(-5,98)	(46,11)	(-1,42)	(-62,17)	(124,47)	(-38,48)	(362,47)	(112,43)	(250,1)	(4,10)	(-126,32)	(-3,4)	
L1D -29>	(-10,13)	(31,121)	(7,8)	(32,88)	(5,21)	(2,17)	(30,8)	(28,12)	(17,91)	(-1,12)	(6,85)	(8,6)	(42,5)	(-2,1)	(4,6)	(29,47)	
L1D -28>	(1,10)	(-1,6)	(238,41)	(0,21)	(18,1)	(-4,20)	(-74,40)	(75,12)	(-12,5)	(3,13)	(28,27)	(-56,75)	(160,17)	(107,3)	(34,108)	(8,8)	
L1D -27>	(0,5)	(27,36)	(3,4)	(97,90)	(5,1)	(-13,5)	(-1,10)	(-8,2)	(-15,2)	(26,7)	(8,54)	(29,14)	(-14,3)	(42,1)	(41,2)	(1,3)	
L1D -26>	(-5,74)	(2,13)	(-6,18)	(4,11)	(26,23)	(-2,40)	(-96,81)	(5,70)	(-192,82)	(-118,1)	(-1,18)	(6,11)	(-10,32)	(-52,65)	(1,87)	(20,11)	
L1D -25>	(6,9)	(24,15)	(27,6)	(23,1)	(-5,3)	(-24,6)	(25,41)	(34,20)	(-1,24)	(4,14)	(2,5)	(5,9)	(41,20)	(-6,2)	(13,19)	(-10,118)	
L1D -24>	(8,67)	(9,18)	(-18,1)	(16,0)	(64,0)	(1,9)	(-3,1)	(25,12)	(338,2)	(3,40)	(-258,22)	(-4,39)	(24,39)	(0,4)	(-8,3)	(140,26)	
L1D -23>	(182,1)	(8,78)	(0,10)	(1,1)	(6,1)	(-1,1)	(18,6)	(23,6)	(-5,3)	(390,2)	(5,10)	(-52,0)	(22,1)	(21,0)	(-42,1)	(25,7)	
L1D -22>	(4,23)	(19,5)	(0,1)	(1,4)	(326,14)	(38,18)	(-9,88)	(6,3)	(254,18)	(23,1)	(22,9)	(-2,1)	(-1,2)	(5,29)	(20,7)	(104,2)	
L1D -21>	(-4,2)	(1,10)	(-10,11)	(19,1)	(13,13)	(-1,88)	(8,16)	(21,7)	(17,1)	(0,4)	(6,4)	(2,1)	(5,27)	(4,2)	(15,18)	(18,7)	
L1D -20>	(95,1)	(17,31)	(143,11)	(229,32)	(16,30)	(3,5)	(22,38)	(6,8)	(-1,49)	(289,17)	(15,6)	(311,22)	(18,49)	(20,106)	(5,24)	(162,12)	
L1D -19>	(9,1)	(13,8)	(-2,82)	(10,16)	(6,69)	(4,78)	(-9,89)	(152,15)	(-4,33)	(-1,3)	(18,8)	(5,5)	(14,8)	(8,32)	(15,14)	(-42,8)	
L1D -18>	(3,12)	(6,7)	(-308,22)	(-90,22)	(15,26)	(-63,22)	(4,15)	(66,15)	(17,23)	(54,21)	(-6,78)	(5,4)	(-252,22)	(25,1)	(12,7)	(60,13)	
L1D -17>	(14,31)	(-21,1)	(8,21)	(9,104)	(2,1)	(28,1)	(15,1)	(7,1)	(1,34)	(4,5)	(-5,35)	(-6,0)	(17,120)	(-60,1)	(-77,1)	(13,1)	
L1D -16>	(6,7)	(8,26)	(12,1)	(3,45)	(63,39)	(4,30)	(-5,84)	(30,19)	(1,46)	(-6,38)	(-1,28)	(7,7)	(36,19)	(276,16)	(-9,41)	(64,18)	
L1D -15>	(6,23)	(-9,78)	(-8,18)	(23,1)	(15,10)	(-40,5)	(0,39)	(-42,3)	(2,10)	(13,8)	(4,31)	(-1,5)	(5,14)	(10,3)	(9,14)	(1,15)	
L1D -14>	(1,6)	(8,1)	(21,2)	(-42,10)	(5,8)	(43,3)	(218,16)	(-5,16)	(23,4)	(12,6)	(4,37)	(56,22)	(-96,18)	(9,66)	(2,3)	(6,3)	
L1D -13>	(1,8)	(-9,100)	(12,12)	(-12,19)	(-42,11)	(6,14)	(3,16)	(10,8)	(4,29)	(2,11)	(-5,35)	(8,11)	(5,5)	(13,16)	(22,1)	(-8,58)	
L1D -12>	(1,107)	(-6,28)	(-30,29)	(-42,12)	(6,15)	(-130,27)	(-46,24)	(-10,82)	(-7,61)	(2,57)	(-5,121)	(4,38)	(-8,28)	(11,1)	(0,6)	(3,23)	
L1D -11>	(18,8)	(11,12)	(1,16)	(47,10)	(3,11)	(5,43)	(20,7)	(6,10)	(-60,7)	(-9,8)	(-7,18)	(26,12)	(4,90)	(-5,9)	(87,1)	(-4,18)	
L1D -10>	(9,27)	(4,84)	(77,12)	(-5,36)	(5,24)	(6,8)	(57,1)	(3,11)	(-2,4)	(-42,8)	(41,16)	(25,8)	(2,7)	(106,12)	(-156,11)	(1,15)	
L1D -9>	(25,8)	(24,119)	(18,3)	(1,16)	(43,2)	(8,4)	(17,10)	(-7,9)	(13,2)	(4,23)	(-14,1)	(-1,9)	(9,29)	(-34,1)	(-8,64)	(6,2)	
L1D -8>	(1,17)	(23,16)	(9,66)	(7,1)	(-2,3)	(-48,4)	(14,33)	(5,7)	(0,19)	(-20,4)	(17,99)	(-32,3)	(2,8)	(-8,5)	(-9,27)	(8,43)	
L1D -7>	(-9,15)	(-1,44)	(30,96)	(0,38)	(6,41)	(56,38)	(66,38)	(7,88)	(-10,5)	(176,1)	(49,12)	(10,13)	(15,95)	(22,39)	(-4,18)	(8,111)	
L1D -6>	(-5,6)	(5,20)	(-1,6)	(24,29)	(0,4)	(28,5)	(4,9)	(41,10)	(8,4)	(-2,18)	(1,10)	(-8,72)	(-15,2)	(9,25)	(3,10)	(-7,2)	
L1D -5>	(41,42)	(18,48)	(4,103)	(-6,39)	(-3,78)	(72,1)	(5,66)	(9,122)	(16,37)	(17,25)	(138,19)	(12,12)	(8,42)	(-15,17)	(-1,96)	(14,15)	
L1D -4>	(15,13)	(-11,55)	(1,50)	(-15,45)	(3,64)	(-3,45)	(-5,87)	(-4,101)	(26,17)	(5,12)	(0,24)	(103,1)	(11,18)	(-16,13)	(2,29)	(9,21)	
L1D -3>	(20,30)	(0,83)	(-12,1)	(-5,39)	(4,108)	(-4,26)	(1,44)	(-2,40)	(-7,50)	(-15,13)	(43,21)	(-1,21)	(6,21)	(2,18)	(-11,22)	(17,7)	
L1D -2>	(-2,85)	(-3,54)	(11,29)	(1,59)	(-1,53)	(0,84)	(5,36)	(-4,37)	(49,29)	(-6,46)	(-8,1)	(-171,26)	(13,38)	(4,74)	(3,32)	(-10,20)	
L1D -1>	(-171,16)	(-5,3)	(-15,5)	(-1,90)	(5,6)	(4,23)	(-11,7)	(173,3)	(-2,7)	(0,11)	(-170,12)	(2,12)	(172,12)	(-3,7)	(171,2)	(-16,1)	
L1D 0>	(0,96)	(2,53)	(-363,1)	(-3,2)	(8,9)	(-7,14)	(85,1)	(-5,2)	(1,5)	(-9,1)	(4,7)	(-1,11)	(59,1)	(5,1)	(9,4)	(49,5)	
L1D 1>	(1,97)	(8,5)	(343,4)	(9,1)	(6,2)	(0,3)	(16,1)	(-6,4)	(2,7)	(3,8)	(4,6)	(5,1)	(-125,1)	(-3,1)	(-1,8)	(-2,5)	
L1D 2>	(0,72)	(-2,5)	(2,118)	(-3,7)	(-172,7)	(1,26)	(4,23)	(-1,11)	(3,23)	(43,2)	(20,1)	(-8,2)	(8,5)	(6,7)	(-6,2)	(5,7)	
L1D 3>	(1,46)	(-1,37)	(2,103)	(3,44)	(4,13)	(13,7)	(6,15)	(7,14)	(-173,13)	(-344,1)	(-2,8)	(170,9)	(-3,7)	(0,10)	(171,8)	(5,10)	
L1D 4>	(-35,23)	(5,97)	(1,28)	(-6,24)	(-1,29)	(-46,28)	(9,89)	(-12,1)	(-24,14)	(-174,32)	(-17,24)	(0,21)	(2,63)	(6,13)	(3,40)	(-5,16)	
L1D 5>	(-5,21)	(-7,11)	(-4,18)	(3,12)	(40,7)	(4,29)	(-6,1)	(35,17)	(-13,6)	(-41,10)	(1,20)	(9,97)	(2,25)	(31,14)	(-14,11)	(18,10)	
L1D 6>	(-12,13)	(-6,29)	(-3,1)	(94,15)	(-7,30)	(9,12)	(1,35)	(2,102)	(-82,14)	(-128,15)	(14,19)	(-15,28)	(18,19)	(3,30)	(-132,11)	(11,13)	
L1D 7>	(-42,6)	(-5,6)	(-6,21)	(3,23)	(0,64)	(-7,28)	(-3,2)	(-15,1)	(1,21)	(23,2)	(13,6)	(9,6)	(2,36)	(-1,6)	(-11,5)	(-4,14)	
L1D 8>	(-9,73)	(-1,5)	(16,2)	(-17,70)	(8,25)	(-19,6)	(5,7)	(10,1)	(9,5)	(15,76)	(-3,3)	(-2,5)	(-8,37)	(47,2)	(1,4)	(-7,4)	
L1D 9>	(-11,1)	(-9,3)	(4,31)	(0,11)	(-22,20)	(8,98)	(-13,24)	(9,72)	(5,28)	(40,16)	(-12,24)	(-21,15)	(31,10)	(36,7)	(-7,15)	(-17,27)	
L1D 10>	(-156,38)	(-3,72)	(-8,48)	(-7,10)	(6,25)	(-72,34)	(-2,1)	(0,33)	(-6,23)	(-84,7)	(-11,13)	(-10,13)	(-18,21)	(-194,7)	(-19,53)	(-12,10)	
L1D 11>	(5,1)	(-10,29)	(36,46)	(-1,37)	(-20,17)	(-4,111)	(0,38)	(133,9)	(-3,26)	(47,16)	(-42,16)	(-18,6)	(-16,53)	(-8,12)	(-9,23)	(-2,14)	
L1D 12>	(-6,13)	(-8,27)	(144,20)	(-12,8)	(-7,23)	(-2,32)	(-5,66)	(-24,36)	(133,12)	(-20,93)	(-19,89)	(-21,10)	(76,31)	(82,11)	(-11,19)	(-10,1)	
L1D 13>	(13,9)	(-9,1)	(-11,18)	(-42,5)	(20,16)	(-20,76)	(-5,21)	(8,12)	(-2,15)	(-1,9)	(0,8)	(-6,21)	(40,33)	(-18,14)	(-12,15)	(59,38)	
L1D 14>	(-36,1)	(-2,7)	(-13,8)	(-124,6)	(-30,6)	(-16,9)	(12,5)	(78,7)	(23,6)	(0,9)	(-156,4)	(-40,4)	(-7,10)	(-6,94)	(-278,6)	(-314,6)	
L1D 15>	(-24,18)	(-16,20)	(-23,108)	(-2,1)	(0,74)	(47,28)	(-18,26)	(-4,36)	(-14,15)	(65,31)	(81,24)	(-127,35)	(-3,62)	(75,23)	(69,30)	(-15,100)	
L1D 16>	(-88,19)	(-4,32)	(23,10)	(-2,9)	(41,3)	(-34,19)	(47,61)	(-14,8)	(-18,1)	(-13,4)	(-11,11)	(-96,19)	(0,21)	(-1,30)	(-9,111)	(-42,7)	
L1D 17>	(-8,34)	(-42,2)	(-19,5)	(4,2)	(2,3)	(142,2)	(138,1)	(-13,1)	(-17,12)	(0,2)	(-3,2)	(-16,3)	(-1,1)	(-9,106)	(26,1)	(-11,17)	
L1D 18>	(-19,29)	(-42,25)	(72,89)	(-23,37)	(-15,29)	(-12,50)	(-58,15)	(-11,42)	(-29,27)	(-88,33)	(-9,108)	(0,14)	(-13,12)	(202,33)	(12,1)	(78,11)	
L1D 19>	(-18,2)	(-15,31)	(-28,1)	(-4,72)	(-17,7)	(-16,6)	(-303,36)	(0,2)	(-13,5)	(72,4)	(-42,21)	(-2,11)	(-1,21)	(-235,5)	(-24,6)	(-11,1)	
L1D 20>	(-20,66)	(-16,69)	(-17,9)	(-19,47)	(138,20)	(-42,8)	(-22,36)	(4,20)	(-1,1)	(-21,5)	(-24,7)	(-2,11)	(5,19)	(-12,18)	(-15,18)	(-6,7)	
L1D 21>	(-22,26)	(-20,8)	(-19,22)	(-1,25)	(-2,54)	(-42,23)	(1,10)	(-15,99)	(-18,12)	(-3,12)	(-4,20)	(22,1)	(-6,6)	(-17,11)	(-16,3)	(-26,2)	
L1D 22>	(369,53)	(140,9)	(-42,31)	(242,70)	(-23,107)	(-1,23)	(-290,18)	(-18,21)	(137,14)	(367,34)	(4,20)	(-4,1)	(5,8)	(-19,13)	(267,11)	(159,55)	
L1D 23>	(4,95)	(-15,17)	(-2,12)	(-7,1)	(-23,54)	(-21,15)	(-1,7)	(-20,10)	(-18,5)	(-9,18)	(-42,3)	(-4,11)	(-19,6)	(-24,19)	(-3,3)	(-22,14)	
L1D 24>	(72,4)	(-15,76)	(-23,38)	(98,6)	(1,7)	(-24,0)	(-5,2)	(-25,6)	(-1,9)	(-21,3)	(-18,15)	(-3,2)	(-42,2)	(290,9)	(70,1)	(158,9)	
L1D 25>	(-2,26)	(-23,3)	(-26,24)	(11,4)	(-24,98)	(-21,14)	(-4,14)	(-77,38)	(-13,1)	(-40,27)	(-6,29)	(2,4)	(-42,19)	(-1,5)	(-16,1)	(-15,34)	
L1D 26>	(-272,1)	(0,10)	(-27,34)	(-154,94)	(-42,82)	(-21,7)	(-228,78)	(2,4)	(-41,17)	(-15,123)	(-23,18)	(-1,103)	(-25,7)	(-3,44)	(-22,25)	(42,7)	
L1D 27>	(1,10)	(-42,53)	(-23,5)	(-15,78)	(-13,3)	(-29,2)	(-4,20)	(-25,1)	(-26,2)	(-9,18)	(-28,18)	(-24,10)	(-41,15)	(7,6)	(-40,11)	(0,6)	
L1D 28>	(296,1)	(-44,15)	(-42,10)	(58,82)	(66,76)	(-2,73)	(-18,85)	(-26,10)	(-24,85)	(184,64)	(-80,11)	(182,10)	(2,17)	(-5,17)	(236,84)	(-29,25)	
L1D 29>	(11,8)	(-33,1)	(-2,7)	(-10,3)	(1,8)	(-31,18)	(-40,23)	(5,5)	(0,4)	(-30,25)	(-25,10)	(2,10)	(-9,9)	(-42,91)	(-35,3)	(-41,7)	
L1D 30>	(-32,7)	(66,26)	(-31,8)	(5,1)	(-33,114)	(4,64)	(-42,20)	(-1,2)	(-252,1)	(-60,15)	(-34,4)	(-136,1)	(12,1)	(108,1)	(-40,7)	(-92,2)	
L1D 31>	(40,117)	(-242,16)	(-27,1)	(4,3)	(1,5)	(41,11)	(-42,13)	(-32,4)	(-185,17)	(-6,5)	(-122,1)	(-203,2)	(-43,4)	(10,3)	(-162,1)	(0,3)	
L1D 32>	(10,4)	(-29,8)	(40,3)	(-43,2)	(-228,1)	(-31,93)	(-36,3)	(-33,16)	(-42,36)	(-272,2)	(-34,5)	(-1,23)	(-154,26)	(-27,22)	(18,28)	(60,1)	
L1D 33>	(1,2)	(-1,27)	(2,5)	(5,4)	(-2,8)	(24,16)	(7,4)	(-42,70)	(-36,3)	(-34,21)	(-40,21)	(-41,6)	(8,7)	(3,1)	(20,1)	(4,4)	
L1D 34>	(-41,1)	(238,91)	(-5,1)	(-36,2)	(0,8)	(41,81)	(1,13)	(-42,52)	(-35,23)	(10,76)	(-2,9)	(-13,1)	(-350,15)	(-1,2)	(38,1)	(-12,89)	
L1D 35>	(41,98)	(-162,3)	(-36,4)	(4,9)	(-171,13)	(-40,3)	(-121,4)	(25,1)	(3,1)	(6,2)	(-10,1)	(0,2)	(-202,2)	(1,3)	(5,6)	(-42,16)	
L1D 36>	(40,29)	(-38,14)	(-42,20)	(-60,13)	(4,64)	(-88,16)	(-43,4)	(-30,3)	(228,7)	(-41,0)	(-62,12)	(-31,1)	(10,1)	(0,1)	(-37,10)	(1,1)	
L1D 37>	(-35,78)	(-44,1)	(-41,4)	(-121,1)	(-40,4)	(6,2)	(-38,11)	(0,1)	(-42,13)	(1,2)	(4,1)	(2,0)	(-39,1)	(-12,1)	(7,1)	(8,0)	
L1D 38>	(-50,41)	(-39,109)	(-322,36)	(136,42)	(16,39)	(48,37)	(-41,15)	(-40,9)	(40,2)	(-42,37)	(-44,1)	(2,1)	(-43,4)	(-104,13)	(-60,1)	(-24,11)	
L1D 39>	(3,1)	(-40,115)	(-1,7)	(-43,6)	(40,2)	(-2,3)	(4,3)	(-37,4)	(-44,4)	(-41,14)	(-42,61)	(13,7)	(41,8)	(-13,3)	(0,4)	(-14,7)	
L1D 40>	(-240,0)	(41,75)	(-121,0)	(5,14)	(-242,1)	(-41,0)	(9,1)	(-228,0)	(-283,1)	(0,0)	(1,0)	(-43,0)	(-40,1)	(-161,0)	(-75,1)	(-42,0)	
L1D 41>	(40,92)	(-284,1)	(-42,1)	(-81,1)	(-364,2)	(0,1)	(-346,1)	(-3,0)	(4,13)	(-252,0)	(9,6)	(-44,1)	(-1,1)	(-122,0)	(-324,5)	(-43,2)	
L1D 42>	(4,118)	(-16,30)	(-38,20)	(8,21)	(-42,54)	(-43,119)	(-2,84)	(-24,8)	(-12,80)	(106,124)	(-278,10)	(-188,1)	(58,18)	(-45,33)	(40,74)	(-96,21)	
L1D 43>	(-42,97)	(-3,6)	(-41,11)	(-40,22)	(1,5)	(-146,1)	(21,3)	(0,8)	(-44,10)	(-4,3)	(8,6)	(2,6)	(-39,2)	(5,2)	(3,8)	(19,2)	
L1D 44>	(-44,26)	(128,50)	(-40,27)	(-122,38)	(40,34)	(-62,15)	(204,56)	(-45,15)	(2,17)	(10,1)	(-4,13)	(4,9)	(41,34)	(-42,121)	(-1,12)	(5,23)	
L1D 45>	(-41,6)	(-1,6)	(4,5)	(1,11)	(-42,79)	(-145,1)	(-63,1)	(-60,6)	(-3,5)	(-40,13)	(-5,3)	(-43,3)	(40,28)	(-44,2)	(-8,1)	(-46,14)	
L1D 46>	(-280,40)	(-172,7)	(-45,8)	(-42,82)	(4,6)	(-1,7)	(98,9)	(81,62)	(-43,3)	(-34,2)	(-41,5)	(-47,25)	(2,12)	(-127,1)	(-60,5)	(6,10)	
L1D 47>	(4,10)	(-49,14)	(-46,48)	(-60,3)	(-48,14)	(1,11)	(-47,86)	(-37,5)	(-42,35)	(7,1)	(-44,3)	(-45,2)	(-36,5)	(-2,3)	(-30,10)	(-31,2)	
L1D 48>	(194,107)	(-298,55)	(-58,33)	(190,11)	(-30,119)	(-118,86)	(-242,15)	(-45,32)	(88,20)	(48,123)	(-168,123)	(232,11)	(-66,99)	(-42,105)	(-2,1)	(-49,22)	
L1D 49>	(4,101)	(-2,5)	(-48,90)	(-57,27)	(-46,6)	(-45,14)	(-42,81)	(-60,3)	(-3,6)	(40,1)	(-1,6)	(-10,3)	(-43,17)	(-41,5)	(7,2)	(-50,54)	
L1D 50>	(-60,9)	(-47,13)	(50,8)	(1,1)	(-7,2)	(-42,93)	(-46,3)	(-45,5)	(-51,16)	(-2,4)	(-10,85)	(75,3)	(-174,58)	(-36,38)	(-1,6)	(120,8)	
L1D 51>	(-48,1)	(-52,51)	(-55,12)	(-35,11)	(-5,6)	(-60,15)	(-42,117)	(-8,8)	(-1,4)	(6,3)	(-34,8)	(-12,13)	(-43,8)	(42,15)	(-53,11)	(93,18)	
L1D 52>	(-2,9)	(-48,4)	(-53,8)	(-36,2)	(-60,6)	(2,16)	(-42,90)	(-9,8)	(7,1)	(-43,13)	(-6,8)	(-164,2)	(24,13)	(-1,3)	(-62,1)	(-44,16)	
L1D 53>	(-44,1)	(-18,2)	(-43,9)	(-60,16)	(-42,115)	(-10,10)	(-52,4)	(-36,8)	(5,23)	(-62,5)	(4,27)	(2,5)	(6,2)	(-1,7)	(-54,5)	(41,22)	
L1D 54>	(-42,83)	(-1,19)	(-4,7)	(-2,9)	(-44,1)	(10,11)	(-9,2)	(-52,5)	(-63,1)	(-202,1)	(-8,20)	(4,2)	(152,4)	(-158,108)	(-13,3)	(-11,5)	
L1D 55>	(-64,2)	(4,8)	(-60,5)	(-42,72)	(-12,6)	(-54,12)	(-43,5)	(-55,27)	(-3,7)	(13,10)	(-21,1)	(-2,6)	(-36,3)	(-1,10)	(1,3)	(-65,4)	
L1D 56>	(-48,93)	(-186,23)	(-55,19)	(-42,22)	(-52,7)	(-13,5)	(-40,17)	(-56,3)	(-1,5)	(2,2)	(3,1)	(-2,3)	(-150,1)	(-65,1)	(-3,2)	(5,1)	
L1D 57>	(-47,48)	(-60,6)	(-42,71)	(-59,1)	(-9,4)	(-40,3)	(-52,8)	(-2,11)	(3,1)	(-65,0)	(2,7)	(-20,3)	(-1,7)	(-3,1)	(-12,6)	(-14,2)	
L1D 58>	(136,4)	(-182,72)	(36,73)	(-47,9)	(-270,3)	(-18,1)	(-1,5)	(-59,6)	(-3,1)	(-43,2)	(-158,1)	(-60,11)	(-15,5)	(-17,1)	(-68,5)	(-42,27)	
L1D 59>	(4,12)	(-58,49)	(-63,1)	(-68,9)	(-59,1)	(-62,1)	(-60,40)	(-42,17)	(-16,2)	(-47,1)	(-1,2)	(-2,4)	(-57,2)	(-44,1)	(-13,2)	(-56,83)	
L1D 60>	(-42,52)	(-66,101)	(-24,98)	(-48,45)	(-38,37)	(4,67)	(-1,12)	(-12,5)	(14,31)	(-60,27)	(-4,8)	(26,1)	(-2,10)	(-154,4)	(-3,6)	(6,6)	
L1D 61>	(-59,1)	(-62,120)	(10,1)	(-17,1)	(-47,1)	(-58,2)	(-42,19)	(-46,1)	(-60,6)	(8,2)	(6,1)	(-49,1)	(0,4)	(19,1)	(-56,2)	(1,3)	
L1D 62>	(186,118)	(-48,6)	(-114,6)	(-60,28)	(-67,4)	(-16,9)	(-42,15)	(-54,1)	(4,3)	(-49,10)	(-59,3)	(-19,3)	(-212,11)	(-184,71)	(-154,6)	(-96,2)	
L1D 63>	(-58,1)	(3,1)	(-63,2)	(-64,1)	(-47,126)	(-60,13)	(-45,4)	(-42,9)	(-247,20)	(-40,3)	(16,1)	(-1,0)	(-21,0)	(8,0)	(-6,0)	(-20,1)	
L1D 64>	(-21,6)	(-69,8)	(-2,119)	(10,6)	(-18,3)	(-70,14)	(8,125)	(-212,113)	(-60,12)	(-62,5)	(48,117)	(-42,16)	(-59,2)	(-41,5)	(-24,1)	(-116,1)	
L1D 65>	(-67,64)	(-60,2)	(-219,30)	(-97,4)	(-57,2)	(-42,8)	(-154,1)	(-21,1)	(-64,19)	(-55,3)	(-61,0)	(-66,2)	(-23,0)	(-2,1)	(1,0)	(-1,1)	
L1D 66>	(-72,41)	(-23,4)	(112,55)	(-58,44)	(-40,55)	(-68,86)	(116,1)	(-138,49)	(-92,64)	(24,40)	(-196,30)	(226,60)	(-18,46)	(42,7)	(4,101)	(-210,61)	
L1D 67>	(-69,70)	(-2,98)	(-57,15)	(-79,1)	(-16,1)	(-60,6)	(-42,41)	(-24,4)	(-152,1)	(1,1)	(-61,1)	(-64,1)	(-59,1)	(-68,1)	(-56,1)	(-244,6)	
L1D 68>	(-222,4)	(-62,1)	(226,2)	(-92,11)	(240,5)	(-67,15)	(-60,15)	(118,7)	(-74,72)	(-70,1)	(31,1)	(6,1)	(302,79)	(-23,1)	(-42,7)	(-290,25)	
L1D 69>	(-72,80)	(-62,1)	(5,1)	(-60,5)	(-42,46)	(-26,2)	(42,2)	(4,1)	(-40,1)	(-1,0)	(2,1)	(-57,7)	(-67,16)	(-79,1)	(1,0)	(-39,0)	
L1D 70>	(-275,115)	(-42,15)	(-27,2)	(-32,102)	(-84,17)	(-180,63)	(102,117)	(-40,7)	(-210,8)	(-60,9)	(-88,9)	(-86,1)	(-96,1)	(-94,6)	(2,5)	(-98,17)	
L1D 71>	(-38,59)	(41,4)	(-10,4)	(-68,12)	(-60,42)	(-42,110)	(4,8)	(-209,3)	(-43,6)	(-61,1)	(23,3)	(-40,12)	(-1,4)	(-28,3)	(-8,2)	(-72,5)	
L1D 72>	(-86,70)	(4,78)	(-60,13)	(-73,6)	(-74,22)	(-71,119)	(-122,84)	(-80,104)	(-67,71)	(-68,1)	(240,29)	(-38,87)	(175,9)	(112,52)	(-70,15)	(-66,96)	
L1D 73>	(1,3)	(-61,1)	(-23,85)	(-83,1)	(-71,0)	(17,0)	(-60,5)	(-2,0)	(0,0)	(43,0)	(-42,5)	(2,1)	(61,0)	(-76,12)	(-74,6)	(-1,0)	
L1D 74>	(160,19)	(16,86)	(1,1)	(-42,1)	(-75,4)	(-316,41)	(30,3)	(-1,1)	(146,1)	(-12,1)	(-96,2)	(-115,0)	(-60,3)	(34,0)	(-194,0)	(-29,0)	
L1D 75>	(60,86)	(-41,3)	(50,2)	(-58,1)	(-138,1)	(25,0)	(4,1)	(-346,9)	(-76,3)	(2,1)	(-42,1)	(42,0)	(-60,9)	(1,1)	(43,4)	(40,3)	
L1D 76>	(-60,5)	(-106,99)	(-32,10)	(40,6)	(-54,6)	(-74,15)	(-77,7)	(39,1)	(-190,11)	(30,6)	(-35,1)	(-42,2)	(-232,1)	(-30,79)	(92,6)	(2,2)	
L1D 77>	(-79,15)	(-15,2)	(-60,1)	(-72,2)	(4,116)	(-81,14)	(-5,1)	(-80,36)	(-78,16)	(1,0)	(-42,1)	(-82,0)	(43,0)	(3,1)	(-3,0)	(-4,0)	
L1D 78>	(-292,112)	(-82,14)	(-76,65)	(-2,122)	(-180,18)	(-42,9)	(102,15)	(152,5)	(-66,5)	(170,1)	(-78,36)	(-282,22)	(24,20)	(-119,82)	(4,9)	(-89,9)	
L1D 79>	(40,2)	(-60,4)	(-78,64)	(-89,3)	(-8,1)	(38,3)	(46,1)	(-80,2)	(-127,8)	(-5,1)	(42,2)	(-42,3)	(3,1)	(-18,1)	(41,2)	(-77,1)	
L1D 80>	(-8,8)	(-98,9)	(-85,8)	(246,100)	(-67,11)	(154,92)	(-106,9)	(-46,113)	(-216,7)	(-32,116)	(42,1)	(-55,4)	(8,11)	(9,102)	(14,114)	(5,2)	
L1D 81>	(-81,36)	(-84,16)	(-283,1)	(-82,118)	(-60,2)	(65,0)	(5,0)	(40,7)	(0,2)	(-9,0)	(-121,0)	(2,0)	(45,0)	(-42,0)	(-41,1)	(-5,0)	
L1D 82>	(-46,10)	(-184,4)	(-82,77)	(24,75)	(-112,5)	(-69,3)	(-228,1)	(-110,2)	(-80,19)	(-26,59)	(14,46)	(-77,8)	(-78,24)	(-68,2)	(-83,3)	(-280,4)	
L1D 83>	(-73,5)	(-82,17)	(-85,77)	(-83,92)	(-79,1)	(-22,1)	(-42,1)	(41,2)	(-60,1)	(4,19)	(40,1)	(-78,8)	(71,1)	(60,1)	(-86,1)	(53,1)	
L1D 84>	(164,19)	(-42,7)	(-40,3)	(-83,66)	(-230,18)	(33,0)	(224,13)	(-85,11)	(-134,14)	(-16,0)	(-43,1)	(-2,2)	(-102,4)	(-84,2)	(88,1)	(-88,5)	
L1D 85>	(4,5)	(61,1)	(-86,5)	(-154,1)	(-3,21)	(1,1)	(-42,2)	(-9,1)	(-8,5)	(-43,1)	(49,2)	(-2,1)	(-78,120)	(-77,43)	(2,3)	(-81,7)	
L1D 86>	(-18,114)	(-230,2)	(2,2)	(-60,1)	(232,2)	(-42,1)	(-46,2)	(-256,1)	(-85,1)	(-246,5)	(-58,7)	(1,5)	(128,1)	(-258,5)	(8,1)	(45,1)	
L1D 87>	(-144,119)	(-66,2)	(4,11)	(-81,1)	(59,3)	(42,1)	(-7,1)	(1,2)	(-42,1)	(-35,1)	(-60,2)	(2,1)	(-67,8)	(5,1)	(-2,1)	(-73,2)	
L1D 88>	(84,27)	(2,24)	(-73,4)	(44,1)	(132,6)	(-184,46)	(61,1)	(-42,5)	(-102,23)	(14,1)	(-38,1)	(5,2)	(-74,4)	(10,2)	(18,106)	(88,22)	
L1D 89>	(-41,1)	(-60,6)	(6,112)	(-48,1)	(-44,1)	(0,1)	(2,2)	(44,1)	(43,2)	(-82,2)	(45,1)	(-90,1)	(64,1)	(-42,3)	(55,0)	(60,0)	
L1D 90>	(-2,85)	(-42,5)	(3,2)	(-72,1)	(-34,19)	(40,4)	(-36,13)	(122,5)	(-6,1)	(8,1)	(9,1)	(49,1)	(-91,2)	(60,2)	(-41,3)	(-90,18)	
L1D 91>	(59,12)	(62,15)	(1,6)	(41,10)	(-3,2)	(-92,22)	(53,3)	(40,6)	(6,3)	(42,7)	(-42,58)	(-40,21)	(-66,3)	(-4,4)	(-1,8)	(-67,12)	
[...]
L1D 479>	(1,0)	(1,0)	(1,0)	(1,0)	(1,0)	(1,0)	(1,0)	(1,0)	(1,0)	(1,0)	(1,0)	(1,0)	(1,0)	(1,0)	(1,0)	(1,0)	
L1D 480>	(1,0)	(1,0)	(1,0)	(1,0)	(1,0)	(1,0)	(1,0)	(1,0)	(1,0)	(1,0)	(1,0)	(1,0)	(1,0)	(1,0)	(1,0)	(1,0)	
L1D 481>	(1,0)	(1,0)	(1,0)	(1,0)	(1,0)	(1,0)	(1,0)	(1,0)	(1,0)	(1,0)	(1,0)	(1,0)	(1,0)	(1,0)	(1,0)	(1,0)	
L1D 482>	(1,0)	(1,0)	(1,0)	(1,0)	(1,0)	(1,0)	(1,0)	(1,0)	(1,0)	(1,0)	(1,0)	(1,0)	(1,0)	(1,0)	(1,0)	(1,0)	
L1D 483>	(1,0)	(1,0)	(1,0)	(1,0)	(1,0)	(1,0)	(1,0)	(1,0)	(1,0)	(1,0)	(1,0)	(1,0)	(1,0)	(1,0)	(1,0)	(1,0)	
L1D 484>	(1,0)	(1,0)	(1,0)	(1,0)	(1,0)	(1,0)	(1,0)	(1,0)	(1,0)	(1,0)	(1,0)	(1,0)	(1,0)	(1,0)	(1,0)	(1,0)	
L1D 485>	(1,0)	(1,0)	(1,0)	(1,0)	(1,0)	(1,0)	(1,0)	(1,0)	(1,0)	(1,0)	(1,0)	(1,0)	(1,0)	(1,0)	(1,0)	(1,0)	
L1D 486>	(1,0)	(1,0)	(1,0)	(1,0)	(1,0)	(1,0)	(1,0)	(1,0)	(1,0)	(1,0)	(1,0)	(1,0)	(1,0)	(1,0)	(1,0)	(1,0)	
L1D 487>	(1,0)	(1,0)	(1,0)	(1,0)	(1,0)	(1,0)	(1,0)	(1,0)	(1,0)	(1,0)	(1,0)	(1,0)	(1,0)	(1,0)	(1,0)	(1,0)	
L1D 488>	(1,0)	(1,0)	(1,0)	(1,0)	(1,0)	(1,0)	(1,0)	(1,0)	(1,0)	(1,0)	(1,0)	(1,0)	(1,0)	(1,0)	(1,0)	(1,0)	
L1D 489>	(1,0)	(1,0)	(1,0)	(1,0)	(1,0)	(1,0)	(1,0)	(1,0)	(1,0)	(1,0)	(1,0)	(1,0)	(1,0)	(1,0)	(1,0)	(1,0)	
L1D 490>	(1,0)	(1,0)	(1,0)	(1,0)	(1,0)	(1,0)	(1,0)	(1,0)	(1,0)	(1,0)	(1,0)	(1,0)	(1,0)	(1,0)	(1,0)	(1,0)	
L1D 491>	(1,0)	(1,0)	(1,0)	(1,0)	(1,0)	(1,0)	(1,0)	(1,0)	(1,0)	(1,0)	(1,0)	(1,0)	(1,0)	(1,0)	(1,0)	(1,0)	
L1D 492>	(1,0)	(1,0)	(1,0)	(1,0)	(1,0)	(1,0)	(1,0)	(1,0)	(1,0)	(1,0)	(1,0)	(1,0)	(1,0)	(1,0)	(1,0)	(1,0)	
L1D 493>	(1,0)	(1,0)	(1,0)	(1,0)	(1,0)	(1,0)	(1,0)	(1,0)	(1,0)	(1,0)	(1,0)	(1,0)	(1,0)	(1,0)	(1,0)	(1,0)	
L1D 494>	(1,0)	(1,0)	(1,0)	(1,0)	(1,0)	(1,0)	(1,0)	(1,0)	(1,0)	(1,0)	(1,0)	(1,0)	(1,0)	(1,0)	(1,0)	(1,0)	
L1D 495>	(1,0)	(1,0)	(1,0)	(1,0)	(1,0)	(1,0)	(1,0)	(1,0)	(1,0)	(1,0)	(1,0)	(1,0)	(1,0)	(1,0)	(1,0)	(1,0)	
L1D 496>	(1,0)	(1,0)	(1,0)	(1,0)	(1,0)	(1,0)	(1,0)	(1,0)	(1,0)	(1,0)	(1,0)	(1,0)	(1,0)	(1,0)	(1,0)	(1,0)	
L1D 497>	(1,0)	(1,0)	(1,0)	(1,0)	(1,0)	(1,0)	(1,0)	(1,0)	(1,0)	(1,0)	(1,0)	(1,0)	(1,0)	(1,0)	(1,0)	(1,0)	
L1D 498>	(1,0)	(1,0)	(1,0)	(1,0)	(1,0)	(1,0)	(1,0)	(1,0)	(1,0)	(1,0)	(1,0)	(1,0)	(1,0)	(1,0)	(1,0)	(1,0)	
L1D 499>	(1,0)	(1,0)	(1,0)	(1,0)	(1,0)	(1,0)	(1,0)	(1,0)	(1,0)	(1,0)	(1,0)	(1,0)	(1,0)	(1,0)	(1,0)	(1,0)	
L1D 500>	(1,0)	(1,0)	(1,0)	(1,0)	(1,0)	(1,0)	(1,0)	(1,0)	(1,0)	(1,0)	(1,0)	(1,0)	(1,0)	(1,0)	(1,0)	(1,0)	
L1D 501>	(1,0)	(1,0)	(1,0)	(1,0)	(1,0)	(1,0)	(1,0)	(1,0)	(1,0)	(1,0)	(1,0)	(1,0)	(1,0)	(1,0)	(1,0)	(1,0)	
L1D 502>	(1,0)	(1,0)	(1,0)	(1,0)	(1,0)	(1,0)	(1,0)	(1,0)	(1,0)	(1,0)	(1,0)	(1,0)	(1,0)	(1,0)	(1,0)	(1,0)	
L1D 503>	(1,0)	(1,0)	(1,0)	(1,0)	(1,0)	(1,0)	(1,0)	(1,0)	(1,0)	(1,0)	(1,0)	(1,0)	(1,0)	(1,0)	(1,0)	(1,0)	
L1D 504>	(1,0)	(1,0)	(1,0)	(1,0)	(1,0)	(1,0)	(1,0)	(1,0)	(1,0)	(1,0)	(1,0)	(1,0)	(1,0)	(1,0)	(1,0)	(1,0)	
L1D 505>	(1,0)	(1,0)	(1,0)	(1,0)	(1,0)	(1,0)	(1,0)	(1,0)	(1,0)	(1,0)	(1,0)	(1,0)	(1,0)	(1,0)	(1,0)	(1,0)	
L1D 506>	(1,0)	(1,0)	(1,0)	(1,0)	(1,0)	(1,0)	(1,0)	(1,0)	(1,0)	(1,0)	(1,0)	(1,0)	(1,0)	(1,0)	(1,0)	(1,0)	
L1D 507>	(1,0)	(1,0)	(1,0)	(1,0)	(1,0)	(1,0)	(1,0)	(1,0)	(1,0)	(1,0)	(1,0)	(1,0)	(1,0)	(1,0)	(1,0)	(1,0)	
L1D 508>	(1,0)	(1,0)	(1,0)	(1,0)	(1,0)	(1,0)	(1,0)	(1,0)	(1,0)	(1,0)	(1,0)	(1,0)	(1,0)	(1,0)	(1,0)	(1,0)	
L1D 509>	(1,0)	(1,0)	(1,0)	(1,0)	(1,0)	(1,0)	(1,0)	(1,0)	(1,0)	(1,0)	(1,0)	(1,0)	(1,0)	(1,0)	(1,0)	(1,0)	
L1D 510>	(1,0)	(1,0)	(1,0)	(1,0)	(1,0)	(1,0)	(1,0)	(1,0)	(1,0)	(1,0)	(1,0)	(1,0)	(1,0)	(1,0)	(1,0)	(1,0)	
L1D 511>	(1,0)	(1,0)	(1,0)	(1,0)	(1,0)	(1,0)	(1,0)	(1,0)	(1,0)	(1,0)	(1,0)	(1,0)	(1,0)	(1,0)	(1,0)	(1,0)	

L2C -64>	(1,213)	(-1,58)	(22,2)	(-22,23)	(20,11)	(21,2)	(18,1)	(0,16)	(3,39)	(2,190)	(42,13)	(-44,14)	(4,41)	(-21,17)	(-23,5)	(-2,23)	
L2C -63>	(1,171)	(3,8)	(4,3)	(41,0)	(42,0)	(22,0)	(1,0)	(1,0)	(1,0)	(1,0)	(1,0)	(1,0)	(1,0)	(1,0)	(1,0)	(1,0)	
L2C -62>	(1,8)	(2,6)	(1,0)	(1,0)	(1,0)	(1,0)	(1,0)	(1,0)	(1,0)	(1,0)	(1,0)	(1,0)	(1,0)	(1,0)	(1,0)	(1,0)	
L2C -61>	(1,1)	(1,0)	(1,0)	(1,0)	(1,0)	(1,0)	(1,0)	(1,0)	(1,0)	(1,0)	(1,0)	(1,0)	(1,0)	(1,0)	(1,0)	(1,0)	
L2C -60>	(2,1)	(1,1)	(1,0)	(1,0)	(1,0)	(1,0)	(1,0)	(1,0)	(1,0)	(1,0)	(1,0)	(1,0)	(1,0)	(1,0)	(1,0)	(1,0)	
L2C -59>	(29,2)	(4,2)	(52,1)	(8,2)	(1,0)	(1,0)	(1,0)	(1,0)	(1,0)	(1,0)	(1,0)	(1,0)	(1,0)	(1,0)	(1,0)	(1,0)	
L2C -58>	(1,15)	(-1,1)	(3,1)	(29,1)	(1,0)	(1,0)	(1,0)	(1,0)	(1,0)	(1,0)	(1,0)	(1,0)	(1,0)	(1,0)	(1,0)	(1,0)	
L2C -57>	(1,142)	(14,0)	(1,0)	(1,0)	(1,0)	(1,0)	(1,0)	(1,0)	(1,0)	(1,0)	(1,0)	(1,0)	(1,0)	(1,0)	(1,0)	(1,0)	
L2C -56>	(1,2)	(-2,2)	(13,1)	(27,1)	(7,1)	(35,1)	(28,1)	(1,0)	(1,0)	(1,0)	(1,0)	(1,0)	(1,0)	(1,0)	(1,0)	(1,0)	
L2C -55>	(-2,15)	(1,8)	(20,3)	(19,2)	(-1,1)	(48,4)	(27,2)	(12,1)	(21,3)	(49,1)	(3,1)	(1,0)	(1,0)	(1,0)	(1,0)	(1,0)	
L2C -54>	(-1,9)	(2,2)	(19,1)	(26,8)	(24,2)	(1,4)	(13,1)	(10,1)	(54,1)	(23,1)	(25,1)	(1,0)	(1,0)	(1,0)	(1,0)	(1,0)	
L2C -53>	(1,5)	(0,12)	(-1,8)	(26,4)	(4,1)	(21,5)	(31,1)	(3,2)	(-4,1)	(1,0)	(1,0)	(1,0)	(1,0)	(1,0)	(1,0)	(1,0)	
L2C -52>	(-1,11)	(1,47)	(26,13)	(0,1)	(-4,1)	(30,1)	(13,4)	(4,2)	(22,12)	(28,2)	(45,1)	(27,1)	(50,1)	(21,1)	(44,1)	(9,1)	
L2C -51>	(2,2)	(7,7)	(8,3)	(-1,14)	(-6,1)	(1,7)	(45,1)	(20,3)	(16,2)	(31,1)	(0,12)	(15,10)	(-8,1)	(14,4)	(44,2)	(9,3)	
L2C -50>	(21,35)	(44,17)	(28,12)	(-1,34)	(1,43)	(-2,1)	(6,5)	(15,22)	(23,3)	(14,9)	(20,3)	(42,6)	(29,14)	(22,17)	(9,7)	(7,7)	
L2C -49>	(-3,3)	(1,6)	(21,3)	(43,10)	(44,4)	(0,3)	(15,2)	(27,1)	(-1,6)	(7,1)	(8,1)	(14,4)	(45,1)	(-6,2)	(28,1)	(22,1)	
L2C -48>	(43,16)	(42,2)	(22,2)	(1,9)	(23,2)	(-2,18)	(35,1)	(20,1)	(7,1)	(24,1)	(45,3)	(12,1)	(19,3)	(3,4)	(-1,5)	(27,1)	
L2C -47>	(1,68)	(48,2)	(43,23)	(21,2)	(22,20)	(44,51)	(4,1)	(-1,2)	(45,2)	(23,9)	(24,1)	(3,1)	(0,1)	(-2,1)	(19,1)	(9,1)	
L2C -46>	(47,5)	(21,29)	(0,32)	(43,135)	(-1,31)	(22,91)	(23,9)	(1,74)	(44,135)	(38,2)	(45,7)	(42,7)	(24,14)	(2,3)	(3,7)	(25,2)	
L2C -45>	(43,219)	(2,6)	(23,12)	(44,55)	(46,8)	(12,1)	(0,2)	(1,124)	(22,109)	(20,3)	(24,6)	(-1,31)	(21,3)	(42,24)	(-2,1)	(3,3)	
L2C -44>	(22,147)	(43,191)	(1,198)	(-1,67)	(45,23)	(23,47)	(42,11)	(21,34)	(44,39)	(46,2)	(-7,0)	(8,2)	(2,18)	(0,2)	(24,2)	(-2,2)	
L2C -43>	(23,13)	(42,42)	(21,83)	(22,138)	(43,61)	(-2,4)	(44,44)	(45,1)	(1,78)	(-1,52)	(3,0)	(25,2)	(36,0)	(20,2)	(2,0)	(24,0)	
L2C -42>	(-2,7)	(1,130)	(23,0)	(-1,68)	(22,72)	(21,247)	(8,0)	(43,67)	(44,16)	(20,33)	(-21,0)	(41,2)	(0,1)	(2,0)	(42,10)	(13,0)	
L2C -41>	(1,147)	(40,13)	(44,24)	(-2,130)	(2,4)	(45,1)	(20,74)	(19,39)	(43,74)	(21,34)	(-1,68)	(42,48)	(22,28)	(3,7)	(0,10)	(-3,5)	
L2C -40>	(1,41)	(-3,23)	(42,18)	(41,11)	(43,21)	(19,27)	(21,17)	(-2,14)	(-1,21)	(0,8)	(22,17)	(12,2)	(20,11)	(-4,2)	(18,10)	(39,1)	
L2C -39>	(1,239)	(0,1)	(32,0)	(4,0)	(40,2)	(38,0)	(17,0)	(-2,1)	(37,0)	(6,0)	(21,0)	(18,0)	(13,0)	(-6,0)	(19,0)	(53,0)	
L2C -38>	(21,3)	(20,2)	(1,16)	(-5,1)	(13,1)	(18,2)	(19,4)	(36,2)	(30,1)	(2,1)	(-8,1)	(43,1)	(7,1)	(8,1)	(10,1)	(-1,1)	
L2C -37>	(23,3)	(1,21)	(-20,2)	(44,2)	(-21,1)	(18,2)	(19,4)	(7,6)	(-7,6)	(-22,3)	(22,1)	(31,1)	(2,6)	(35,2)	(29,1)	(6,2)	
L2C -36>	(-1,34)	(1,41)	(-21,35)	(-7,14)	(7,7)	(29,23)	(-14,4)	(-22,11)	(50,4)	(-20,9)	(-19,21)	(2,6)	(-6,5)	(15,1)	(28,6)	(-23,7)	
L2C -35>	(1,11)	(15,14)	(-22,16)	(28,55)	(29,4)	(-13,3)	(2,2)	(0,2)	(-2,3)	(7,6)	(8,8)	(-1,62)	(-14,4)	(-10,1)	(21,4)	(-8,7)	
L2C -34>	(-8,6)	(-21,21)	(20,2)	(-7,2)	(-15,3)	(-1,23)	(-9,6)	(1,1)	(-5,1)	(-23,3)	(-22,4)	(5,1)	(42,1)	(-2,23)	(4,2)	(6,2)	
L2C -33>	(-9,1)	(-6,1)	(1,8)	(-16,1)	(-1,5)	(15,1)	(8,1)	(-3,2)	(25,2)	(-15,3)	(19,2)	(2,1)	(4,3)	(5,1)	(-2,1)	(26,1)	
L2C -32>	(-16,1)	(-21,5)	(31,2)	(1,7)	(-20,1)	(-1,3)	(-18,1)	(4,1)	(7,1)	(39,1)	(5,1)	(10,1)	(2,1)	(25,1)	(11,1)	(1,0)	
L2C -31>	(-1,7)	(-26,1)	(-17,1)	(-3,3)	(23,1)	(-20,1)	(1,3)	(36,1)	(-7,1)	(13,1)	(-21,3)	(8,1)	(4,1)	(5,2)	(26,1)	(30,1)	
L2C -30>	(1,52)	(13,2)	(-20,14)	(14,7)	(-2,3)	(-22,6)	(15,4)	(-1,3)	(2,1)	(9,2)	(44,5)	(16,12)	(8,7)	(-23,1)	(-6,4)	(36,3)	
L2C -29>	(15,20)	(-21,154)	(-8,6)	(43,5)	(36,4)	(-1,56)	(7,28)	(44,18)	(8,11)	(25,1)	(-14,6)	(1,48)	(23,4)	(-7,6)	(-22,5)	(-20,8)	
L2C -28>	(20,11)	(-1,53)	(21,200)	(32,1)	(15,25)	(22,7)	(6,8)	(-2,9)	(14,62)	(-20,4)	(7,24)	(1,18)	(-22,23)	(42,2)	(28,5)	(35,5)	
L2C -27>	(22,39)	(-22,7)	(1,13)	(21,24)	(-21,6)	(7,1)	(-16,7)	(13,7)	(28,6)	(6,14)	(0,24)	(-1,17)	(5,5)	(12,2)	(27,7)	(14,5)	
L2C -26>	(26,6)	(22,38)	(-21,2)	(-1,58)	(42,2)	(21,34)	(0,23)	(20,11)	(18,4)	(2,5)	(1,15)	(27,3)	(33,7)	(-9,2)	(12,1)	(-2,3)	
L2C -25>	(22,94)	(4,8)	(3,20)	(2,11)	(20,8)	(44,15)	(1,124)	(-21,90)	(21,82)	(11,1)	(5,6)	(-22,70)	(43,89)	(0,19)	(23,6)	(-1,19)	
L2C -24>	(-22,130)	(22,168)	(43,201)	(-21,245)	(1,233)	(44,26)	(2,18)	(3,24)	(23,13)	(21,190)	(42,134)	(-20,10)	(0,51)	(-1,88)	(-19,1)	(20,22)	
L2C -23>	(2,29)	(1,178)	(21,94)	(22,66)	(-22,119)	(43,102)	(-21,72)	(0,11)	(-2,1)	(20,4)	(24,26)	(45,17)	(44,39)	(-1,154)	(42,16)	(-20,4)	
L2C -22>	(1,202)	(-21,101)	(21,47)	(-22,17)	(22,108)	(43,74)	(0,8)	(23,14)	(20,2)	(-20,5)	(19,0)	(-2,1)	(44,14)	(-1,25)	(42,14)	(24,4)	
L2C -21>	(-1,63)	(43,86)	(-21,35)	(42,19)	(22,143)	(21,80)	(-22,86)	(-2,5)	(0,20)	(19,1)	(20,37)	(1,46)	(41,1)	(44,1)	(-23,11)	(-20,1)	
L2C -20>	(41,7)	(-1,103)	(-23,51)	(1,251)	(21,59)	(22,100)	(43,179)	(-2,72)	(27,7)	(2,3)	(20,6)	(42,80)	(-22,74)	(10,1)	(19,29)	(-21,78)	
L2C -19>	(22,75)	(-21,33)	(-2,188)	(1,73)	(-23,20)	(43,112)	(-1,81)	(20,47)	(-24,11)	(-22,53)	(21,39)	(42,25)	(0,1)	(-3,44)	(-4,7)	(19,57)	
L2C -18>	(22,4)	(21,1)	(1,254)	(42,3)	(40,1)	(19,1)	(9,1)	(-1,3)	(-2,1)	(41,1)	(24,1)	(39,1)	(-3,1)	(-24,0)	(23,0)	(-23,1)	
L2C -17>	(1,46)	(-2,7)	(-1,8)	(-7,4)	(7,2)	(9,2)	(-4,2)	(-27,1)	(-23,4)	(18,1)	(21,3)	(22,5)	(2,18)	(5,4)	(-22,1)	(17,1)	
L2C -16>	(2,22)	(-1,5)	(22,8)	(4,3)	(23,6)	(1,48)	(14,14)	(-28,1)	(15,8)	(16,99)	(-5,2)	(-21,2)	(18,3)	(0,30)	(-6,3)	(5,10)	
L2C -15>	(1,142)	(-6,5)	(15,9)	(23,6)	(28,5)	(2,54)	(-1,36)	(-7,6)	(3,14)	(13,4)	(7,6)	(0,4)	(35,1)	(36,12)	(9,5)	(30,13)	
L2C -14>	(8,34)	(43,7)	(1,50)	(28,47)	(-12,4)	(35,6)	(14,11)	(7,20)	(0,7)	(-15,207)	(29,10)	(22,14)	(-14,18)	(-1,21)	(6,16)	(-13,8)	
L2C -13>	(1,61)	(-1,134)	(-15,6)	(5,26)	(9,1)	(2,9)	(-7,10)	(-6,5)	(-8,4)	(15,28)	(28,20)	(7,7)	(-14,5)	(34,3)	(-2,8)	(13,19)	
L2C -12>	(43,5)	(1,27)	(0,1)	(34,5)	(28,10)	(26,4)	(-1,96)	(-2,27)	(-8,11)	(5,4)	(21,9)	(-9,8)	(-16,3)	(7,4)	(40,6)	(3,2)	
L2C -11>	(6,4)	(1,11)	(-2,2)	(3,3)	(11,1)	(19,12)	(18,8)	(-1,10)	(-9,5)	(45,2)	(43,2)	(10,2)	(-17,1)	(-6,2)	(20,1)	(12,2)	
L2C -10>	(2,11)	(13,3)	(-1,13)	(45,1)	(18,3)	(-7,2)	(1,13)	(31,5)	(39,1)	(17,4)	(10,1)	(23,8)	(12,2)	(22,5)	(-2,3)	(9,3)	
L2C -9>	(25,8)	(1,52)	(-7,34)	(7,63)	(8,90)	(16,27)	(5,9)	(44,26)	(-13,7)	(17,6)	(-1,61)	(15,5)	(-6,3)	(39,1)	(43,5)	(23,6)	
L2C -8>	(-6,40)	(-20,20)	(7,127)	(10,14)	(8,145)	(15,49)	(-14,32)	(1,106)	(-1,130)	(16,31)	(-8,54)	(23,13)	(44,30)	(30,1)	(-9,13)	(-7,80)	
L2C -7>	(-1,142)	(1,49)	(13,6)	(-15,8)	(6,23)	(-8,17)	(8,33)	(-7,16)	(10,1)	(15,28)	(-21,23)	(-6,9)	(7,26)	(-14,8)	(23,7)	(14,11)	
L2C -6>	(7,14)	(1,163)	(11,1)	(-1,13)	(-7,23)	(5,5)	(-22,1)	(8,7)	(21,1)	(12,10)	(-2,1)	(6,17)	(-8,1)	(2,2)	(13,1)	(14,8)	
L2C -5>	(-22,47)	(21,40)	(-9,7)	(-1,97)	(7,7)	(-2,26)	(22,14)	(-43,6)	(1,63)	(4,41)	(3,7)	(-21,17)	(0,61)	(-3,14)	(5,57)	(13,2)	
L2C -4>	(3,19)	(-22,9)	(-21,25)	(-1,33)	(22,8)	(-9,2)	(-5,1)	(9,1)	(1,179)	(2,12)	(44,8)	(4,8)	(0,12)	(5,14)	(-2,19)	(14,2)	
L2C -3>	(1,164)	(44,12)	(2,12)	(-19,1)	(23,6)	(-21,31)	(45,6)	(43,13)	(-22,39)	(24,10)	(-44,4)	(0,11)	(-1,44)	(22,26)	(-7,4)	(3,6)	
L2C -2>	(43,14)	(-8,1)	(1,189)	(0,136)	(-1,23)	(-22,6)	(44,17)	(22,17)	(-21,6)	(2,3)	(-20,5)	(24,1)	(21,8)	(23,2)	(3,1)	(-19,1)	
L2C -1>	(-19,19)	(2,23)	(-20,64)	(44,24)	(-21,143)	(22,90)	(-43,11)	(43,1)	(-1,76)	(23,16)	(21,18)	(3,9)	(-22,54)	(24,7)	(0,100)	(1,160)	
L2C 0>	(-22,16)	(-43,4)	(22,5)	(0,190)	(1,103)	(15,0)	(-21,10)	(-1,7)	(21,8)	(2,6)	(-2,0)	(35,0)	(-5,0)	(-3,0)	(-6,1)	(14,1)	
L2C 1>	(-23,4)	(1,219)	(19,4)	(11,18)	(5,17)	(20,12)	(12,16)	(21,12)	(3,1)	(42,8)	(-2,33)	(-1,32)	(-22,5)	(-57,13)	(22,13)	(41,3)	
L2C 2>	(20,3)	(3,2)	(1,182)	(-9,1)	(-7,1)	(-2,30)	(5,4)	(-22,13)	(-24,3)	(-1,7)	(-44,4)	(21,3)	(-3,1)	(-26,1)	(4,2)	(2,6)	
L2C 3>	(-2,5)	(1,239)	(18,3)	(39,4)	(2,16)	(-4,19)	(21,64)	(-1,33)	(4,8)	(-3,13)	(5,22)	(19,15)	(3,14)	(-22,7)	(-23,1)	(42,43)	
L2C 4>	(1,217)	(40,6)	(0,7)	(5,46)	(4,42)	(3,19)	(2,30)	(-1,4)	(19,2)	(-2,2)	(-6,11)	(-3,16)	(-7,1)	(-4,2)	(18,5)	(6,3)	
L2C 5>	(-7,3)	(-4,1)	(-1,0)	(8,1)	(0,0)	(2,2)	(-6,7)	(5,2)	(17,253)	(16,0)	(-5,0)	(-18,42)	(-39,43)	(1,3)	(-34,1)	(-35,0)	
L2C 6>	(-6,237)	(-14,84)	(2,43)	(0,50)	(-5,18)	(-13,30)	(-19,13)	(7,253)	(35,11)	(8,13)	(1,153)	(-26,1)	(16,56)	(-7,40)	(-8,11)	(-20,23)	
L2C 7>	(37,7)	(-21,13)	(2,43)	(1,81)	(-8,33)	(-1,22)	(-14,136)	(-7,37)	(-15,16)	(0,20)	(8,22)	(-6,128)	(15,10)	(-28,1)	(7,36)	(-9,7)	
L2C 8>	(5,30)	(7,50)	(2,41)	(-15,1)	(1,100)	(6,130)	(-14,16)	(14,11)	(-7,37)	(21,14)	(0,42)	(-8,71)	(-16,10)	(-1,177)	(-2,51)	(13,39)	
L2C 9>	(-1,69)	(35,10)	(-23,7)	(1,38)	(13,11)	(6,11)	(-15,7)	(-2,44)	(-8,27)	(7,5)	(-22,9)	(5,22)	(-7,14)	(2,1)	(0,4)	(15,3)	
L2C 10>	(-4,1)	(5,35)	(-9,2)	(-1,12)	(-2,95)	(-51,1)	(1,20)	(6,16)	(-13,1)	(-12,2)	(-11,2)	(-17,1)	(26,1)	(-8,2)	(14,1)	(-14,1)	
L2C 11>	(1,184)	(-20,1)	(-13,0)	(-10,0)	(15,0)	(1,0)	(1,0)	(1,0)	(1,0)	(1,0)	(1,0)	(1,0)	(1,0)	(1,0)	(1,0)	(1,0)	
L2C 12>	(-8,1)	(2,217)	(-19,1)	(11,0)	(-11,0)	(-10,0)	(-13,0)	(-6,0)	(7,2)	(1,0)	(1,0)	(1,0)	(1,0)	(1,0)	(1,0)	(1,0)	
L2C 13>	(1,53)	(-8,11)	(16,1)	(-21,17)	(-6,44)	(-1,9)	(-2,7)	(-4,21)	(0,8)	(-15,12)	(-12,6)	(-13,24)	(-7,20)	(-30,10)	(-14,63)	(-29,6)	
L2C 14>	(1,148)	(-1,14)	(-15,52)	(21,26)	(22,11)	(-14,30)	(-7,24)	(20,1)	(-8,73)	(-16,11)	(7,147)	(-6,199)	(-2,44)	(-13,9)	(29,12)	(-4,39)	
L2C 15>	(1,36)	(20,2)	(-15,21)	(21,19)	(-14,61)	(-21,27)	(-27,8)	(5,21)	(-6,38)	(-30,10)	(-2,39)	(-42,9)	(-22,23)	(-1,91)	(-9,7)	(-36,19)	
L2C 16>	(-21,27)	(7,5)	(-22,104)	(-1,9)	(0,26)	(1,18)	(-2,12)	(-16,115)	(6,5)	(5,13)	(-29,1)	(-7,8)	(-44,5)	(-30,4)	(-15,20)	(-8,70)	
L2C 17>	(8,0)	(1,200)	(-7,0)	(-1,0)	(20,0)	(0,0)	(-42,0)	(-8,0)	(-41,0)	(22,0)	(1,0)	(1,0)	(1,0)	(1,0)	(1,0)	(1,0)	
L2C 18>	(22,78)	(-22,12)	(0,36)	(-21,241)	(-26,1)	(-43,7)	(23,2)	(21,16)	(1,30)	(-1,4)	(-20,5)	(2,1)	(-17,1)	(-6,3)	(-42,2)	(24,6)	
L2C 19>	(-18,8)	(-21,218)	(-43,12)	(3,3)	(0,36)	(1,54)	(-22,40)	(22,84)	(24,5)	(-8,2)	(-1,20)	(21,35)	(-20,3)	(-19,10)	(23,27)	(-42,6)	
L2C 20>	(1,32)	(21,49)	(-21,210)	(-28,4)	(-22,54)	(-43,21)	(-19,18)	(-42,21)	(0,17)	(-41,6)	(2,20)	(23,14)	(3,1)	(-1,29)	(22,33)	(-2,0)	
L2C 21>	(1,162)	(-22,216)	(-42,16)	(22,32)	(-43,113)	(2,3)	(-21,135)	(21,10)	(0,11)	(-20,45)	(-7,6)	(-28,4)	(-1,45)	(3,1)	(23,1)	(-24,1)	
L2C 22>	(-43,60)	(-44,27)	(-1,97)	(1,36)	(-21,220)	(20,26)	(0,20)	(-22,82)	(22,17)	(21,60)	(-42,1)	(-3,3)	(-20,7)	(-23,16)	(-2,9)	(2,2)	
L2C 23>	(-20,2)	(1,143)	(-42,3)	(-22,112)	(-45,12)	(20,44)	(-24,10)	(21,55)	(-44,29)	(-1,44)	(22,74)	(-43,11)	(-23,6)	(-21,109)	(2,11)	(-2,11)	
L2C 24>	(-22,120)	(-3,14)	(1,89)	(22,54)	(-1,36)	(-44,10)	(-43,30)	(-21,139)	(-2,49)	(19,1)	(21,160)	(-23,51)	(-20,7)	(-45,16)	(-46,13)	(20,12)	
L2C 25>	(-23,9)	(-46,21)	(1,47)	(21,6)	(-21,25)	(-44,4)	(-24,54)	(6,1)	(18,92)	(20,13)	(-2,19)	(-43,2)	(-22,15)	(4,2)	(-47,32)	(-25,10)	
L2C 26>	(1,10)	(-25,3)	(-13,18)	(-27,3)	(-24,2)	(-26,18)	(18,1)	(4,4)	(-28,1)	(-48,1)	(-4,21)	(9,3)	(-44,2)	(-5,2)	(-6,2)	(0,1)	
L2C 27>	(-7,7)	(-48,5)	(-26,7)	(7,14)	(8,14)	(-28,5)	(21,4)	(1,9)	(15,1)	(-5,5)	(-27,11)	(-49,4)	(-14,64)	(-12,4)	(-6,5)	(6,3)	
L2C 28>	(-29,96)	(-30,6)	(0,9)	(-50,103)	(-21,9)	(-48,16)	(14,11)	(-27,7)	(-14,18)	(-8,16)	(1,8)	(15,14)	(16,2)	(-6,7)	(7,10)	(-7,16)	
L2C 29>	(16,4)	(-14,17)	(8,17)	(-1,15)	(20,16)	(21,23)	(13,13)	(-50,42)	(7,21)	(15,7)	(-30,1)	(-27,9)	(-28,45)	(-7,38)	(-8,10)	(-22,4)	
L2C 30>	(20,2)	(-50,13)	(-37,3)	(5,6)	(21,4)	(-1,12)	(-23,2)	(-8,7)	(-41,1)	(-9,2)	(-12,3)	(-29,30)	(2,1)	(6,5)	(-7,2)	(-28,5)	
L2C 31>	(-22,3)	(1,1)	(8,1)	(5,4)	(-4,1)	(-27,2)	(-17,1)	(-14,3)	(-1,2)	(13,1)	(21,2)	(-29,7)	(-32,3)	(-30,7)	(20,2)	(-53,1)	
L2C 32>	(-23,1)	(-50,1)	(-31,1)	(17,2)	(-33,1)	(-30,1)	(-54,1)	(-48,1)	(-35,1)	(-45,1)	(-42,2)	(-17,3)	(7,1)	(-24,1)	(-38,2)	(-28,1)	
L2C 33>	(8,1)	(-52,1)	(-33,1)	(1,1)	(-14,2)	(-34,3)	(-13,15)	(-41,2)	(21,1)	(-42,1)	(12,7)	(-49,1)	(-29,1)	(-5,1)	(-53,1)	(-6,1)	
L2C 34>	(-7,2)	(-57,3)	(-55,4)	(-35,3)	(-36,5)	(-5,4)	(-14,10)	(-56,1)	(-30,2)	(-29,3)	(-32,1)	(-28,2)	(-43,8)	(-12,2)	(-41,11)	(-15,2)	
L2C 35>	(-34,42)	(-42,8)	(-14,4)	(-56,3)	(-21,6)	(-5,10)	(-51,1)	(-57,2)	(-12,1)	(-48,4)	(-7,14)	(-52,1)	(-55,12)	(-36,48)	(-28,19)	(-44,10)	
L2C 36>	(-35,29)	(-5,4)	(-37,4)	(5,2)	(-34,10)	(-56,2)	(-7,18)	(-43,6)	(-29,7)	(-1,5)	(-57,3)	(-55,7)	(-50,4)	(-14,4)	(15,2)	(-27,1)	
L2C 37>	(-21,4)	(-1,16)	(-45,3)	(-42,3)	(-7,22)	(-8,3)	(-44,13)	(1,4)	(-29,4)	(-30,3)	(-35,11)	(-59,2)	(-51,9)	(-2,9)	(-36,46)	(-22,1)	
L2C 38>	(0,3)	(-21,7)	(1,7)	(-32,1)	(-23,3)	(-22,1)	(-44,1)	(-14,1)	(-37,1)	(-5,4)	(-50,1)	(5,6)	(-4,1)	(-45,1)	(-8,1)	(-20,1)	
L2C 39>	(1,8)	(-1,3)	(-22,4)	(-48,1)	(-21,29)	(-44,3)	(-20,4)	(-17,4)	(-19,1)	(-36,4)	(-42,67)	(-43,55)	(-50,3)	(-29,3)	(-41,4)	(2,1)	
L2C 40>	(1,29)	(-1,26)	(-22,90)	(-44,6)	(-21,173)	(-50,10)	(-43,212)	(3,4)	(0,9)	(-41,2)	(2,15)	(-42,39)	(-30,1)	(-52,3)	(-20,16)	(-39,6)	
L2C 41>	(-21,222)	(-43,130)	(2,17)	(0,19)	(-42,8)	(-1,40)	(-22,141)	(-40,13)	(1,26)	(-19,2)	(-52,1)	(-2,1)	(-20,3)	(4,1)	(-44,24)	(-23,1)	
L2C 42>	(1,25)	(-43,17)	(-21,168)	(-41,12)	(3,1)	(-22,66)	(-1,20)	(-19,0)	(2,1)	(-20,21)	(-34,0)	(0,40)	(-44,2)	(-28,0)	(-40,0)	(-42,5)	
L2C 43>	(-22,102)	(-1,35)	(-7,0)	(-21,134)	(-44,18)	(2,1)	(-40,0)	(1,25)	(-28,0)	(-20,7)	(-42,92)	(-43,1)	(-52,0)	(-23,0)	(-45,0)	(0,10)	
L2C 44>	(-46,1)	(-22,137)	(-43,48)	(1,19)	(-20,0)	(-21,63)	(-2,3)	(-1,65)	(-37,0)	(-45,2)	(2,3)	(-36,1)	(-42,5)	(0,7)	(-55,0)	(-23,0)	
L2C 45>	(-1,87)	(-23,17)	(-43,81)	(-22,158)	(1,108)	(-2,101)	(-44,68)	(-3,9)	(-46,10)	(-6,1)	(-42,35)	(-45,1)	(-7,1)	(-21,162)	(2,15)	(0,12)	
L2C 46>	(1,26)	(-43,64)	(-24,9)	(-21,9)	(-45,30)	(-27,1)	(-44,8)	(-3,42)	(-2,82)	(-47,3)	(-23,6)	(-22,128)	(-4,9)	(-1,13)	(-51,1)	(-42,1)	
L2C 47>	(-13,1)	(-4,5)	(1,4)	(-21,1)	(-24,3)	(-3,11)	(-46,9)	(-23,4)	(-7,5)	(-45,1)	(-20,1)	(-33,2)	(-47,2)	(-48,1)	(-28,1)	(1,0)	
L2C 48>	(-5,6)	(-50,11)	(-4,1)	(-26,1)	(-27,1)	(1,1)	(-49,2)	(-29,1)	(-1,1)	(-7,6)	(-35,1)	(-41,1)	(-8,1)	(1,0)	(1,0)	(1,0)	
L2C 49>	(-7,86)	(-28,10)	(-5,1)	(-48,2)	(-6,2)	(-47,1)	(-50,3)	(-35,1)	(-29,5)	(-37,1)	(7,4)	(-14,1)	(-8,3)	(-1,2)	(-3,1)	(1,0)	
L2C 50>	(-7,25)	(-8,11)	(-37,1)	(-26,1)	(-32,1)	(-6,2)	(-1,13)	(-29,6)	(-28,4)	(-21,2)	(2,1)	(-54,1)	(-14,2)	(-35,1)	(-23,1)	(-30,1)	
L2C 51>	(0,5)	(-7,51)	(-1,20)	(-8,17)	(-17,1)	(-52,13)	(-51,23)	(-54,6)	(-23,9)	(-30,1)	(-35,1)	(-28,4)	(-32,2)	(-53,3)	(-44,7)	(-43,1)	
L2C 52>	(-52,1)	(-8,4)	(-53,3)	(-1,7)	(-7,3)	(-46,1)	(-44,1)	(1,1)	(1,0)	(1,0)	(1,0)	(1,0)	(1,0)	(1,0)	(1,0)	(1,0)	
L2C 53>	(5,1)	(-53,12)	(-52,8)	(-44,1)	(-34,1)	(-51,1)	(-3,1)	(-54,1)	(-8,1)	(1,0)	(1,0)	(1,0)	(1,0)	(1,0)	(1,0)	(1,0)	
L2C 54>	(-1,2)	(1,1)	(-53,1)	(1,0)	(1,0)	(1,0)	(1,0)	(1,0)	(1,0)	(1,0)	(1,0)	(1,0)	(1,0)	(1,0)	(1,0)	(1,0)	
L2C 55>	(-1,4)	(-53,3)	(-32,1)	(-35,2)	(-54,1)	(-36,2)	(-57,1)	(-34,1)	(-44,1)	(1,0)	(1,0)	(1,0)	(1,0)	(1,0)	(1,0)	(1,0)	
L2C 56>	(5,1)	(-49,1)	(1,0)	(1,0)	(1,0)	(1,0)	(1,0)	(1,0)	(1,0)	(1,0)	(1,0)	(1,0)	(1,0)	(1,0)	(1,0)	(1,0)	
L2C 57>	(-54,1)	(-36,1)	(-22,1)	(-7,1)	(1,0)	(1,0)	(1,0)	(1,0)	(1,0)	(1,0)	(1,0)	(1,0)	(1,0)	(1,0)	(1,0)	(1,0)	
L2C 58>	(-14,1)	(-35,1)	(-57,1)	(1,0)	(1,0)	(1,0)	(1,0)	(1,0)	(1,0)	(1,0)	(1,0)	(1,0)	(1,0)	(1,0)	(1,0)	(1,0)	
L2C 59>	(-44,1)	(1,0)	(1,0)	(1,0)	(1,0)	(1,0)	(1,0)	(1,0)	(1,0)	(1,0)	(1,0)	(1,0)	(1,0)	(1,0)	(1,0)	(1,0)	
L2C 60>	(-15,1)	(1,0)	(1,0)	(1,0)	(1,0)	(1,0)	(1,0)	(1,0)	(1,0)	(1,0)	(1,0)	(1,0)	(1,0)	(1,0)	(1,0)	(1,0)	
L2C 61>	(1,0)	(1,0)	(1,0)	(1,0)	(1,0)	(1,0)	(1,0)	(1,0)	(1,0)	(1,0)	(1,0)	(1,0)	(1,0)	(1,0)	(1,0)	(1,0)	
L2C 62>	(1,1)	(1,0)	(1,0)	(1,0)	(1,0)	(1,0)	(1,0)	(1,0)	(1,0)	(1,0)	(1,0)	(1,0)	(1,0)	(1,0)	(1,0)	(1,0)	
L2C 63>	(-44,2)	(-21,34)	(-22,20)	(-1,2)	(-41,1)	(-43,3)	(1,0)	(1,0)	(1,0)	(1,0)	(1,0)	(1,0)	(1,0)	(1,0)	(1,0)	(1,0)	

DRAM Statistics
 CHANNEL 0
 RQ ROW_BUFFER_HIT:     105012  ROW_BUFFER_MISS:      98992
 DBUS_CONGESTED:     168944
 WQ ROW_BUFFER_HIT:      22962  ROW_BUFFER_MISS:      56400  FULL:          0

 AVG_CONGESTED_CYCLE: 6
