
*** ChampSim Multicore Out-of-Order Simulator ***

Warmup Instructions: 1000000
Simulation Instructions: 10000000
Number of CPUs: 4
LLC sets: 8192
LLC ways: 16
Off-chip DRAM Size: 4096 MB Channels: 1 Width: 64-bit Data Rate: 3200 MT/s

CPU 0 runs /home/virtualcse/Data-Prefetching/ChampSim/dpc3_traces/648.exchange2_s-1699B.champsimtrace.xz
CPU 1 runs /home/virtualcse/Data-Prefetching/ChampSim/dpc3_traces/620.omnetpp_s-141B.champsimtrace.xz
CPU 2 runs /home/virtualcse/Data-Prefetching/ChampSim/dpc3_traces/625.x264_s-18B.champsimtrace.xz
CPU 3 runs /home/virtualcse/Data-Prefetching/ChampSim/dpc3_traces/605.mcf_s-472B.champsimtrace.xz
Ultra pref. initializing...
Ultra pref. initialized
Ultra pref. initializing...
Ultra pref. initialized
Ultra pref. initializing...
Ultra pref. initialized
Ultra pref. initializing...
Ultra pref. initialized
Ultra pref. initializing...
Ultra pref. initialized
Ultra pref. initializing...
Ultra pref. initialized
Ultra pref. initializing...
Ultra pref. initialized
Ultra pref. initializing...
Ultra pref. initialized

Warmup complete CPU 0 instructions: 1762539 cycles: 540282 (Simulation time: 0 hr 0 min 12 sec) 
Warmup complete CPU 1 instructions: 1000001 cycles: 540282 (Simulation time: 0 hr 0 min 12 sec) 
Warmup complete CPU 2 instructions: 1594472 cycles: 540281 (Simulation time: 0 hr 0 min 12 sec) 
Warmup complete CPU 3 instructions: 1276505 cycles: 540281 (Simulation time: 0 hr 0 min 12 sec) 

Heartbeat CPU 0 instructions: 10000001 cycles: 4046038 heartbeat IPC: 2.47155 cumulative IPC: 2.3497 (Simulation time: 0 hr 0 min 41 sec) 
Heartbeat CPU 2 instructions: 10000000 cycles: 4486052 heartbeat IPC: 2.22913 cumulative IPC: 2.13026 (Simulation time: 0 hr 0 min 44 sec) 
Finished CPU 0 instructions: 10000000 cycles: 4260376 cumulative IPC: 2.34721 (Simulation time: 0 hr 0 min 47 sec) 
Finished CPU 2 instructions: 10000000 cycles: 4679215 cumulative IPC: 2.13711 (Simulation time: 0 hr 0 min 50 sec) 
Heartbeat CPU 0 instructions: 20000000 cycles: 8238064 heartbeat IPC: 2.38548 cumulative IPC: 2.36918 (Simulation time: 0 hr 1 min 14 sec) 
Heartbeat CPU 2 instructions: 20000001 cycles: 9247063 heartbeat IPC: 2.10039 cumulative IPC: 2.11393 (Simulation time: 0 hr 1 min 22 sec) 
Heartbeat CPU 0 instructions: 30000001 cycles: 12424493 heartbeat IPC: 2.38867 cumulative IPC: 2.37605 (Simulation time: 0 hr 1 min 49 sec) 
Heartbeat CPU 2 instructions: 30000003 cycles: 13891645 heartbeat IPC: 2.15305 cumulative IPC: 2.12754 (Simulation time: 0 hr 2 min 0 sec) 
Heartbeat CPU 0 instructions: 40000002 cycles: 16970228 heartbeat IPC: 2.19986 cumulative IPC: 2.3273 (Simulation time: 0 hr 2 min 25 sec) 
Heartbeat CPU 2 instructions: 40000001 cycles: 18533987 heartbeat IPC: 2.15408 cumulative IPC: 2.13439 (Simulation time: 0 hr 2 min 38 sec) 
Heartbeat CPU 3 instructions: 10000000 cycles: 19957284 heartbeat IPC: 0.50107 cumulative IPC: 0.449271 (Simulation time: 0 hr 2 min 49 sec) 
Heartbeat CPU 0 instructions: 50000000 cycles: 21332355 heartbeat IPC: 2.29246 cumulative IPC: 2.31999 (Simulation time: 0 hr 3 min 1 sec) 
Finished CPU 3 instructions: 10000001 cycles: 22083385 cumulative IPC: 0.452829 (Simulation time: 0 hr 3 min 11 sec) 
Heartbeat CPU 2 instructions: 50000002 cycles: 23148435 heartbeat IPC: 2.16711 cumulative IPC: 2.14107 (Simulation time: 0 hr 3 min 15 sec) 
Heartbeat CPU 0 instructions: 60000001 cycles: 25666210 heartbeat IPC: 2.30741 cumulative IPC: 2.31782 (Simulation time: 0 hr 3 min 36 sec) 
Heartbeat CPU 1 instructions: 10000000 cycles: 26727245 heartbeat IPC: 0.37415 cumulative IPC: 0.343682 (Simulation time: 0 hr 3 min 46 sec) 
Heartbeat CPU 2 instructions: 60000000 cycles: 27741110 heartbeat IPC: 2.17738 cumulative IPC: 2.1472 (Simulation time: 0 hr 3 min 54 sec) 
Finished CPU 1 instructions: 10000000 cycles: 29366822 cumulative IPC: 0.34052 (Simulation time: 0 hr 4 min 11 sec) 

CPU 0 Branch Prediction Accuracy: 97.0832% MPKI: 4.00397 Average ROB Occupancy at Mispredict: 49.7529

CPU 1 Branch Prediction Accuracy: 96.1891% MPKI: 5.6957 Average ROB Occupancy at Mispredict: 84.8788

CPU 2 Branch Prediction Accuracy: 97.6156% MPKI: 0.861836 Average ROB Occupancy at Mispredict: 237.294

CPU 3 Branch Prediction Accuracy: 98.5038% MPKI: 1.62746 Average ROB Occupancy at Mispredict: 229.822

ChampSim completed all CPUs

Total Simulation Statistics (not including warmup)

CPU 0 cumulative IPC: 2.31805 instructions: 68073806 cycles: 29366822
L1D TOTAL     ACCESS:   22712405  HIT:   22712228  MISS:        177
L1D LOAD      ACCESS:    7875537  HIT:    7875507  MISS:         30
L1D RFO       ACCESS:    9673866  HIT:    9673814  MISS:         52
L1D PREFETCH  ACCESS:    5163002  HIT:    5162907  MISS:         95
L1D WRITEBACK ACCESS:          0  HIT:          0  MISS:          0
L1I TOTAL     ACCESS:    4591771  HIT:    4590381  MISS:       1390
L1I LOAD      ACCESS:    4591771  HIT:    4590381  MISS:       1390
L1I RFO       ACCESS:          0  HIT:          0  MISS:          0
L1I PREFETCH  ACCESS:          0  HIT:          0  MISS:          0
L1I WRITEBACK ACCESS:          0  HIT:          0  MISS:          0
L2C TOTAL     ACCESS:       6299  HIT:       5056  MISS:       1243
L2C LOAD      ACCESS:       1417  HIT:       1180  MISS:        237
L2C RFO       ACCESS:         52  HIT:          4  MISS:         48
L2C PREFETCH  ACCESS:       4830  HIT:       3872  MISS:        958
L2C WRITEBACK ACCESS:          0  HIT:          0  MISS:          0

L1D -512>	(13,2)	(0,47)	(-27,115)	(3,5)	(4,9)	(-12,6)	(38,1)	(5,12)	(-1,19)	(-13,24)	(-4,16)	(20,1)	(-14,9)	(1,17)	(2,1)	(6,7)	
L1D -511>	(1,1)	(1,0)	(1,0)	(1,0)	(1,0)	(1,0)	(1,0)	(1,0)	(1,0)	(1,0)	(1,0)	(1,0)	(1,0)	(1,0)	(1,0)	(1,0)	
L1D -510>	(1,1)	(1,0)	(1,0)	(1,0)	(1,0)	(1,0)	(1,0)	(1,0)	(1,0)	(1,0)	(1,0)	(1,0)	(1,0)	(1,0)	(1,0)	(1,0)	
L1D -509>	(1,0)	(1,0)	(1,0)	(1,0)	(1,0)	(1,0)	(1,0)	(1,0)	(1,0)	(1,0)	(1,0)	(1,0)	(1,0)	(1,0)	(1,0)	(1,0)	
L1D -508>	(1,0)	(1,0)	(1,0)	(1,0)	(1,0)	(1,0)	(1,0)	(1,0)	(1,0)	(1,0)	(1,0)	(1,0)	(1,0)	(1,0)	(1,0)	(1,0)	
L1D -507>	(23,1)	(1,0)	(1,0)	(1,0)	(1,0)	(1,0)	(1,0)	(1,0)	(1,0)	(1,0)	(1,0)	(1,0)	(1,0)	(1,0)	(1,0)	(1,0)	
L1D -506>	(122,1)	(1,0)	(1,0)	(1,0)	(1,0)	(1,0)	(1,0)	(1,0)	(1,0)	(1,0)	(1,0)	(1,0)	(1,0)	(1,0)	(1,0)	(1,0)	
L1D -505>	(0,1)	(18,1)	(1,0)	(1,0)	(1,0)	(1,0)	(1,0)	(1,0)	(1,0)	(1,0)	(1,0)	(1,0)	(1,0)	(1,0)	(1,0)	(1,0)	
L1D -504>	(0,1)	(1,0)	(1,0)	(1,0)	(1,0)	(1,0)	(1,0)	(1,0)	(1,0)	(1,0)	(1,0)	(1,0)	(1,0)	(1,0)	(1,0)	(1,0)	
L1D -503>	(0,1)	(1,0)	(1,0)	(1,0)	(1,0)	(1,0)	(1,0)	(1,0)	(1,0)	(1,0)	(1,0)	(1,0)	(1,0)	(1,0)	(1,0)	(1,0)	
L1D -502>	(99,1)	(112,1)	(1,0)	(1,0)	(1,0)	(1,0)	(1,0)	(1,0)	(1,0)	(1,0)	(1,0)	(1,0)	(1,0)	(1,0)	(1,0)	(1,0)	
L1D -501>	(-6,1)	(342,1)	(4,1)	(1,0)	(1,0)	(1,0)	(1,0)	(1,0)	(1,0)	(1,0)	(1,0)	(1,0)	(1,0)	(1,0)	(1,0)	(1,0)	
L1D -500>	(4,1)	(0,1)	(1,0)	(1,0)	(1,0)	(1,0)	(1,0)	(1,0)	(1,0)	(1,0)	(1,0)	(1,0)	(1,0)	(1,0)	(1,0)	(1,0)	
L1D -499>	(1,1)	(29,1)	(1,0)	(1,0)	(1,0)	(1,0)	(1,0)	(1,0)	(1,0)	(1,0)	(1,0)	(1,0)	(1,0)	(1,0)	(1,0)	(1,0)	
L1D -498>	(146,1)	(88,1)	(85,4)	(1,0)	(1,0)	(1,0)	(1,0)	(1,0)	(1,0)	(1,0)	(1,0)	(1,0)	(1,0)	(1,0)	(1,0)	(1,0)	
L1D -497>	(1,0)	(1,0)	(1,0)	(1,0)	(1,0)	(1,0)	(1,0)	(1,0)	(1,0)	(1,0)	(1,0)	(1,0)	(1,0)	(1,0)	(1,0)	(1,0)	
L1D -496>	(1,1)	(0,1)	(135,1)	(1,0)	(1,0)	(1,0)	(1,0)	(1,0)	(1,0)	(1,0)	(1,0)	(1,0)	(1,0)	(1,0)	(1,0)	(1,0)	
L1D -495>	(9,2)	(0,1)	(146,1)	(1,1)	(1,0)	(1,0)	(1,0)	(1,0)	(1,0)	(1,0)	(1,0)	(1,0)	(1,0)	(1,0)	(1,0)	(1,0)	
L1D -494>	(0,1)	(112,2)	(146,1)	(1,1)	(1,0)	(1,0)	(1,0)	(1,0)	(1,0)	(1,0)	(1,0)	(1,0)	(1,0)	(1,0)	(1,0)	(1,0)	
L1D -493>	(1,1)	(0,1)	(1,0)	(1,0)	(1,0)	(1,0)	(1,0)	(1,0)	(1,0)	(1,0)	(1,0)	(1,0)	(1,0)	(1,0)	(1,0)	(1,0)	
L1D -492>	(0,2)	(1,0)	(1,0)	(1,0)	(1,0)	(1,0)	(1,0)	(1,0)	(1,0)	(1,0)	(1,0)	(1,0)	(1,0)	(1,0)	(1,0)	(1,0)	
L1D -491>	(-1,2)	(1,0)	(1,0)	(1,0)	(1,0)	(1,0)	(1,0)	(1,0)	(1,0)	(1,0)	(1,0)	(1,0)	(1,0)	(1,0)	(1,0)	(1,0)	
L1D -490>	(98,1)	(47,1)	(1,0)	(1,0)	(1,0)	(1,0)	(1,0)	(1,0)	(1,0)	(1,0)	(1,0)	(1,0)	(1,0)	(1,0)	(1,0)	(1,0)	
L1D -489>	(-3,1)	(1,0)	(1,0)	(1,0)	(1,0)	(1,0)	(1,0)	(1,0)	(1,0)	(1,0)	(1,0)	(1,0)	(1,0)	(1,0)	(1,0)	(1,0)	
L1D -488>	(-3,1)	(0,1)	(115,1)	(99,1)	(1,0)	(1,0)	(1,0)	(1,0)	(1,0)	(1,0)	(1,0)	(1,0)	(1,0)	(1,0)	(1,0)	(1,0)	
L1D -487>	(304,1)	(0,1)	(1,0)	(1,0)	(1,0)	(1,0)	(1,0)	(1,0)	(1,0)	(1,0)	(1,0)	(1,0)	(1,0)	(1,0)	(1,0)	(1,0)	
L1D -486>	(99,1)	(486,1)	(1,1)	(55,1)	(18,1)	(9,2)	(0,2)	(79,1)	(-1,1)	(1,0)	(1,0)	(1,0)	(1,0)	(1,0)	(1,0)	(1,0)	
L1D -485>	(346,1)	(456,1)	(0,2)	(1,0)	(1,0)	(1,0)	(1,0)	(1,0)	(1,0)	(1,0)	(1,0)	(1,0)	(1,0)	(1,0)	(1,0)	(1,0)	
L1D -484>	(0,1)	(82,1)	(70,1)	(85,3)	(10,1)	(47,1)	(1,1)	(1,0)	(1,0)	(1,0)	(1,0)	(1,0)	(1,0)	(1,0)	(1,0)	(1,0)	
L1D -483>	(354,1)	(322,1)	(1,0)	(1,0)	(1,0)	(1,0)	(1,0)	(1,0)	(1,0)	(1,0)	(1,0)	(1,0)	(1,0)	(1,0)	(1,0)	(1,0)	
L1D -482>	(98,1)	(38,2)	(-6,1)	(1,0)	(1,0)	(1,0)	(1,0)	(1,0)	(1,0)	(1,0)	(1,0)	(1,0)	(1,0)	(1,0)	(1,0)	(1,0)	
L1D -481>	(0,2)	(-5,1)	(4,1)	(1,0)	(1,0)	(1,0)	(1,0)	(1,0)	(1,0)	(1,0)	(1,0)	(1,0)	(1,0)	(1,0)	(1,0)	(1,0)	
L1D -480>	(99,2)	(9,1)	(3,1)	(34,1)	(1,0)	(1,0)	(1,0)	(1,0)	(1,0)	(1,0)	(1,0)	(1,0)	(1,0)	(1,0)	(1,0)	(1,0)	
L1D -479>	(146,1)	(0,1)	(1,0)	(1,0)	(1,0)	(1,0)	(1,0)	(1,0)	(1,0)	(1,0)	(1,0)	(1,0)	(1,0)	(1,0)	(1,0)	(1,0)	
L1D -478>	(0,1)	(34,1)	(95,1)	(1,0)	(1,0)	(1,0)	(1,0)	(1,0)	(1,0)	(1,0)	(1,0)	(1,0)	(1,0)	(1,0)	(1,0)	(1,0)	
L1D -477>	(0,1)	(1,0)	(1,0)	(1,0)	(1,0)	(1,0)	(1,0)	(1,0)	(1,0)	(1,0)	(1,0)	(1,0)	(1,0)	(1,0)	(1,0)	(1,0)	
L1D -476>	(91,1)	(3,1)	(-2,1)	(0,1)	(1,0)	(1,0)	(1,0)	(1,0)	(1,0)	(1,0)	(1,0)	(1,0)	(1,0)	(1,0)	(1,0)	(1,0)	
L1D -475>	(0,4)	(4,1)	(1,0)	(1,0)	(1,0)	(1,0)	(1,0)	(1,0)	(1,0)	(1,0)	(1,0)	(1,0)	(1,0)	(1,0)	(1,0)	(1,0)	
L1D -474>	(4,1)	(0,1)	(1,0)	(1,0)	(1,0)	(1,0)	(1,0)	(1,0)	(1,0)	(1,0)	(1,0)	(1,0)	(1,0)	(1,0)	(1,0)	(1,0)	
L1D -473>	(4,1)	(-1,1)	(0,1)	(9,1)	(52,1)	(1,0)	(1,0)	(1,0)	(1,0)	(1,0)	(1,0)	(1,0)	(1,0)	(1,0)	(1,0)	(1,0)	
L1D -472>	(0,1)	(4,1)	(1,0)	(1,0)	(1,0)	(1,0)	(1,0)	(1,0)	(1,0)	(1,0)	(1,0)	(1,0)	(1,0)	(1,0)	(1,0)	(1,0)	
L1D -471>	(1,1)	(0,1)	(17,1)	(262,1)	(1,0)	(1,0)	(1,0)	(1,0)	(1,0)	(1,0)	(1,0)	(1,0)	(1,0)	(1,0)	(1,0)	(1,0)	
L1D -470>	(45,1)	(0,4)	(124,1)	(204,1)	(34,1)	(1,2)	(121,1)	(370,1)	(1,0)	(1,0)	(1,0)	(1,0)	(1,0)	(1,0)	(1,0)	(1,0)	
L1D -469>	(350,1)	(1,0)	(1,0)	(1,0)	(1,0)	(1,0)	(1,0)	(1,0)	(1,0)	(1,0)	(1,0)	(1,0)	(1,0)	(1,0)	(1,0)	(1,0)	
L1D -468>	(9,3)	(20,1)	(0,1)	(69,1)	(479,1)	(88,1)	(103,1)	(1,0)	(1,0)	(1,0)	(1,0)	(1,0)	(1,0)	(1,0)	(1,0)	(1,0)	
L1D -467>	(1,1)	(0,1)	(1,0)	(1,0)	(1,0)	(1,0)	(1,0)	(1,0)	(1,0)	(1,0)	(1,0)	(1,0)	(1,0)	(1,0)	(1,0)	(1,0)	
L1D -466>	(486,1)	(490,1)	(1,1)	(4,1)	(1,0)	(1,0)	(1,0)	(1,0)	(1,0)	(1,0)	(1,0)	(1,0)	(1,0)	(1,0)	(1,0)	(1,0)	
L1D -465>	(0,1)	(1,1)	(1,0)	(1,0)	(1,0)	(1,0)	(1,0)	(1,0)	(1,0)	(1,0)	(1,0)	(1,0)	(1,0)	(1,0)	(1,0)	(1,0)	
L1D -464>	(69,1)	(-1,1)	(17,1)	(0,2)	(2,1)	(1,1)	(1,0)	(1,0)	(1,0)	(1,0)	(1,0)	(1,0)	(1,0)	(1,0)	(1,0)	(1,0)	
L1D -463>	(1,1)	(17,1)	(1,0)	(1,0)	(1,0)	(1,0)	(1,0)	(1,0)	(1,0)	(1,0)	(1,0)	(1,0)	(1,0)	(1,0)	(1,0)	(1,0)	
L1D -462>	(218,1)	(6,1)	(89,1)	(0,1)	(1,1)	(1,0)	(1,0)	(1,0)	(1,0)	(1,0)	(1,0)	(1,0)	(1,0)	(1,0)	(1,0)	(1,0)	
L1D -461>	(9,1)	(1,1)	(1,0)	(1,0)	(1,0)	(1,0)	(1,0)	(1,0)	(1,0)	(1,0)	(1,0)	(1,0)	(1,0)	(1,0)	(1,0)	(1,0)	
L1D -460>	(1,1)	(0,1)	(34,1)	(382,1)	(1,0)	(1,0)	(1,0)	(1,0)	(1,0)	(1,0)	(1,0)	(1,0)	(1,0)	(1,0)	(1,0)	(1,0)	
L1D -459>	(0,1)	(146,1)	(9,1)	(1,2)	(1,0)	(1,0)	(1,0)	(1,0)	(1,0)	(1,0)	(1,0)	(1,0)	(1,0)	(1,0)	(1,0)	(1,0)	
L1D -458>	(456,1)	(91,1)	(0,5)	(48,1)	(-6,1)	(1,0)	(1,0)	(1,0)	(1,0)	(1,0)	(1,0)	(1,0)	(1,0)	(1,0)	(1,0)	(1,0)	
L1D -457>	(1,1)	(1,0)	(1,0)	(1,0)	(1,0)	(1,0)	(1,0)	(1,0)	(1,0)	(1,0)	(1,0)	(1,0)	(1,0)	(1,0)	(1,0)	(1,0)	
L1D -456>	(1,3)	(66,1)	(89,1)	(376,1)	(1,0)	(1,0)	(1,0)	(1,0)	(1,0)	(1,0)	(1,0)	(1,0)	(1,0)	(1,0)	(1,0)	(1,0)	
L1D -455>	(68,14)	(54,1)	(1,0)	(1,0)	(1,0)	(1,0)	(1,0)	(1,0)	(1,0)	(1,0)	(1,0)	(1,0)	(1,0)	(1,0)	(1,0)	(1,0)	
L1D -454>	(0,36)	(1,20)	(108,1)	(79,1)	(50,2)	(57,2)	(87,1)	(1,0)	(1,0)	(1,0)	(1,0)	(1,0)	(1,0)	(1,0)	(1,0)	(1,0)	
L1D -453>	(0,3)	(17,1)	(1,0)	(1,0)	(1,0)	(1,0)	(1,0)	(1,0)	(1,0)	(1,0)	(1,0)	(1,0)	(1,0)	(1,0)	(1,0)	(1,0)	
L1D -452>	(0,2)	(1,3)	(83,1)	(426,1)	(88,1)	(-1,1)	(124,1)	(1,0)	(1,0)	(1,0)	(1,0)	(1,0)	(1,0)	(1,0)	(1,0)	(1,0)	
L1D -451>	(2,2)	(-12,1)	(70,1)	(1,1)	(0,1)	(5,1)	(-2,1)	(1,0)	(1,0)	(1,0)	(1,0)	(1,0)	(1,0)	(1,0)	(1,0)	(1,0)	
L1D -450>	(97,1)	(366,1)	(9,2)	(38,1)	(4,1)	(0,4)	(1,1)	(1,0)	(1,0)	(1,0)	(1,0)	(1,0)	(1,0)	(1,0)	(1,0)	(1,0)	
L1D -449>	(68,106)	(0,75)	(88,55)	(1,4)	(176,3)	(-1,4)	(352,1)	(264,1)	(386,1)	(5,1)	(1,0)	(1,0)	(1,0)	(1,0)	(1,0)	(1,0)	
L1D -448>	(-1,1)	(68,6)	(1,3)	(106,1)	(57,1)	(0,1)	(69,1)	(4,1)	(438,1)	(1,0)	(1,0)	(1,0)	(1,0)	(1,0)	(1,0)	(1,0)	
L1D -447>	(1,3)	(0,3)	(88,2)	(71,1)	(1,0)	(1,0)	(1,0)	(1,0)	(1,0)	(1,0)	(1,0)	(1,0)	(1,0)	(1,0)	(1,0)	(1,0)	
L1D -446>	(1,7)	(77,3)	(0,2)	(9,1)	(278,1)	(4,1)	(-1,1)	(108,1)	(1,0)	(1,0)	(1,0)	(1,0)	(1,0)	(1,0)	(1,0)	(1,0)	
L1D -445>	(0,2)	(68,1)	(88,3)	(1,2)	(458,1)	(9,1)	(23,1)	(2,1)	(-10,1)	(1,0)	(1,0)	(1,0)	(1,0)	(1,0)	(1,0)	(1,0)	
L1D -444>	(0,5)	(1,17)	(88,4)	(2,1)	(71,1)	(69,2)	(272,1)	(1,0)	(1,0)	(1,0)	(1,0)	(1,0)	(1,0)	(1,0)	(1,0)	(1,0)	
L1D -443>	(0,15)	(-1,1)	(4,1)	(1,38)	(396,1)	(88,5)	(1,0)	(1,0)	(1,0)	(1,0)	(1,0)	(1,0)	(1,0)	(1,0)	(1,0)	(1,0)	
L1D -442>	(1,106)	(0,6)	(-7,0)	(88,2)	(392,0)	(399,0)	(1,0)	(1,0)	(1,0)	(1,0)	(1,0)	(1,0)	(1,0)	(1,0)	(1,0)	(1,0)	
L1D -441>	(1,21)	(0,79)	(88,32)	(264,1)	(176,22)	(352,0)	(440,0)	(-1,0)	(1,0)	(1,0)	(1,0)	(1,0)	(1,0)	(1,0)	(1,0)	(1,0)	
L1D -440>	(0,106)	(88,46)	(2,0)	(1,0)	(-1,0)	(1,0)	(1,0)	(1,0)	(1,0)	(1,0)	(1,0)	(1,0)	(1,0)	(1,0)	(1,0)	(1,0)	
L1D -439>	(0,62)	(1,11)	(87,5)	(88,108)	(-1,2)	(86,1)	(35,1)	(1,0)	(1,0)	(1,0)	(1,0)	(1,0)	(1,0)	(1,0)	(1,0)	(1,0)	
L1D -438>	(4,2)	(87,2)	(0,3)	(88,1)	(14,1)	(1,1)	(61,2)	(34,1)	(-8,1)	(1,0)	(1,0)	(1,0)	(1,0)	(1,0)	(1,0)	(1,0)	
L1D -437>	(0,5)	(394,1)	(88,1)	(1,1)	(-2,1)	(9,3)	(29,2)	(20,1)	(1,0)	(1,0)	(1,0)	(1,0)	(1,0)	(1,0)	(1,0)	(1,0)	
L1D -436>	(-1,1)	(73,1)	(88,1)	(63,3)	(0,1)	(107,1)	(69,1)	(1,0)	(1,0)	(1,0)	(1,0)	(1,0)	(1,0)	(1,0)	(1,0)	(1,0)	
L1D -435>	(0,3)	(9,2)	(88,1)	(-58,1)	(-6,1)	(410,1)	(23,1)	(1,0)	(1,0)	(1,0)	(1,0)	(1,0)	(1,0)	(1,0)	(1,0)	(1,0)	
L1D -434>	(190,1)	(1,1)	(396,1)	(0,6)	(-1,1)	(88,1)	(9,1)	(398,1)	(448,1)	(5,2)	(-11,1)	(101,1)	(69,1)	(1,0)	(1,0)	(1,0)	
L1D -433>	(5,1)	(0,3)	(88,2)	(364,1)	(1,1)	(328,1)	(1,0)	(1,0)	(1,0)	(1,0)	(1,0)	(1,0)	(1,0)	(1,0)	(1,0)	(1,0)	
L1D -432>	(38,1)	(3,2)	(88,3)	(10,1)	(1,3)	(0,6)	(9,3)	(91,1)	(61,1)	(52,1)	(-20,1)	(2,2)	(26,1)	(1,0)	(1,0)	(1,0)	
L1D -431>	(23,1)	(88,4)	(17,1)	(0,5)	(431,1)	(1,1)	(47,2)	(92,1)	(1,0)	(1,0)	(1,0)	(1,0)	(1,0)	(1,0)	(1,0)	(1,0)	
L1D -430>	(0,6)	(169,1)	(418,1)	(88,2)	(444,1)	(26,1)	(1,1)	(69,1)	(-2,1)	(286,1)	(32,1)	(1,0)	(1,0)	(1,0)	(1,0)	(1,0)	
L1D -429>	(-29,1)	(1,1)	(56,1)	(0,1)	(238,1)	(431,2)	(88,1)	(29,1)	(411,1)	(1,0)	(1,0)	(1,0)	(1,0)	(1,0)	(1,0)	(1,0)	
L1D -428>	(412,1)	(9,2)	(408,1)	(88,1)	(4,1)	(0,7)	(61,3)	(360,1)	(250,1)	(1,2)	(34,1)	(89,1)	(1,0)	(1,0)	(1,0)	(1,0)	
L1D -427>	(28,124)	(47,1)	(0,3)	(88,1)	(1,3)	(2,1)	(56,1)	(-5,1)	(382,1)	(5,2)	(1,0)	(1,0)	(1,0)	(1,0)	(1,0)	(1,0)	
L1D -426>	(1,46)	(27,56)	(9,2)	(0,11)	(4,9)	(57,1)	(390,1)	(-2,1)	(420,1)	(69,1)	(146,1)	(17,1)	(54,2)	(5,1)	(40,4)	(3,1)	
L1D -425>	(396,1)	(0,3)	(412,1)	(1,2)	(9,1)	(2,1)	(91,1)	(1,0)	(1,0)	(1,0)	(1,0)	(1,0)	(1,0)	(1,0)	(1,0)	(1,0)	
L1D -424>	(406,1)	(0,2)	(53,1)	(1,2)	(428,1)	(-1,1)	(412,1)	(20,1)	(1,0)	(1,0)	(1,0)	(1,0)	(1,0)	(1,0)	(1,0)	(1,0)	
L1D -423>	(1,1)	(0,6)	(406,1)	(-10,2)	(5,1)	(9,2)	(382,1)	(32,1)	(-2,1)	(1,0)	(1,0)	(1,0)	(1,0)	(1,0)	(1,0)	(1,0)	
L1D -422>	(2,59)	(34,1)	(37,1)	(28,1)	(421,1)	(410,2)	(418,1)	(0,1)	(-79,1)	(1,1)	(1,0)	(1,0)	(1,0)	(1,0)	(1,0)	(1,0)	
L1D -421>	(1,2)	(422,2)	(2,1)	(1,0)	(1,0)	(1,0)	(1,0)	(1,0)	(1,0)	(1,0)	(1,0)	(1,0)	(1,0)	(1,0)	(1,0)	(1,0)	
L1D -420>	(1,1)	(0,5)	(421,4)	(402,2)	(394,1)	(420,3)	(388,1)	(53,1)	(-4,1)	(248,1)	(1,0)	(1,0)	(1,0)	(1,0)	(1,0)	(1,0)	
L1D -419>	(1,4)	(11,1)	(9,3)	(0,2)	(88,1)	(419,5)	(2,1)	(383,1)	(56,1)	(420,2)	(-1,1)	(1,0)	(1,0)	(1,0)	(1,0)	(1,0)	
L1D -418>	(45,1)	(0,3)	(-1,1)	(34,1)	(418,11)	(376,1)	(306,1)	(46,1)	(1,3)	(392,1)	(419,3)	(3,1)	(326,1)	(160,1)	(94,1)	(1,0)	
L1D -417>	(-10,86)	(31,2)	(0,0)	(417,0)	(1,0)	(1,0)	(1,0)	(1,0)	(1,0)	(1,0)	(1,0)	(1,0)	(1,0)	(1,0)	(1,0)	(1,0)	
L1D -416>	(0,3)	(415,1)	(1,4)	(53,1)	(416,6)	(444,1)	(404,1)	(58,1)	(-20,1)	(417,2)	(88,1)	(324,1)	(-46,1)	(1,0)	(1,0)	(1,0)	
L1D -415>	(1,4)	(0,4)	(88,1)	(-1,2)	(36,1)	(415,6)	(362,1)	(38,1)	(445,1)	(62,1)	(2,1)	(414,1)	(1,0)	(1,0)	(1,0)	(1,0)	
L1D -414>	(0,5)	(1,4)	(9,6)	(414,5)	(69,1)	(61,2)	(23,1)	(238,1)	(17,1)	(118,1)	(34,1)	(11,1)	(2,1)	(53,1)	(402,2)	(1,0)	
L1D -413>	(1,7)	(2,4)	(0,4)	(413,4)	(-7,2)	(88,1)	(412,1)	(-1,1)	(153,1)	(414,2)	(11,3)	(1,0)	(1,0)	(1,0)	(1,0)	(1,0)	
L1D -412>	(61,1)	(0,6)	(1,2)	(310,1)	(412,9)	(-1,1)	(413,2)	(394,4)	(5,1)	(1,0)	(1,0)	(1,0)	(1,0)	(1,0)	(1,0)	(1,0)	
L1D -411>	(0,120)	(160,1)	(-7,11)	(408,0)	(1,0)	(1,0)	(1,0)	(1,0)	(1,0)	(1,0)	(1,0)	(1,0)	(1,0)	(1,0)	(1,0)	(1,0)	
L1D -410>	(0,8)	(-1,1)	(53,1)	(410,9)	(88,1)	(9,2)	(1,1)	(146,1)	(5,1)	(429,1)	(382,1)	(409,1)	(420,1)	(103,1)	(3,1)	(-10,1)	
L1D -409>	(410,1)	(0,3)	(7,1)	(15,1)	(1,3)	(409,4)	(-14,1)	(-1,1)	(88,1)	(1,0)	(1,0)	(1,0)	(1,0)	(1,0)	(1,0)	(1,0)	
L1D -408>	(9,1)	(390,3)	(88,2)	(0,6)	(6,1)	(409,4)	(366,1)	(1,6)	(344,1)	(37,1)	(38,1)	(-1,1)	(2,1)	(408,1)	(1,0)	(1,0)	
L1D -407>	(1,6)	(0,12)	(56,2)	(9,4)	(388,1)	(454,1)	(407,1)	(4,3)	(-30,1)	(2,2)	(-13,1)	(1,0)	(1,0)	(1,0)	(1,0)	(1,0)	
L1D -406>	(9,41)	(-1,1)	(394,9)	(420,2)	(1,6)	(15,1)	(397,1)	(88,1)	(0,11)	(406,5)	(3,1)	(4,1)	(26,4)	(407,1)	(10,1)	(268,1)	
L1D -405>	(1,5)	(0,4)	(405,1)	(9,2)	(385,0)	(2,2)	(406,1)	(395,86)	(5,1)	(3,1)	(26,0)	(17,0)	(1,0)	(1,0)	(1,0)	(1,0)	
L1D -404>	(-1,1)	(0,9)	(405,3)	(9,120)	(8,1)	(392,4)	(382,1)	(5,4)	(44,10)	(49,3)	(2,28)	(1,3)	(4,1)	(-10,1)	(404,1)	(1,0)	
L1D -403>	(1,3)	(-1,30)	(88,3)	(-10,1)	(0,5)	(159,1)	(27,1)	(44,8)	(4,3)	(48,3)	(9,1)	(-2,3)	(368,1)	(5,1)	(403,1)	(61,1)	
L1D -402>	(0,8)	(390,1)	(-70,1)	(341,1)	(88,3)	(-56,1)	(402,4)	(-2,1)	(1,7)	(396,1)	(-1,2)	(382,1)	(16,13)	(9,1)	(3,1)	(4,1)	
L1D -401>	(1,3)	(0,4)	(88,1)	(-7,1)	(401,5)	(-10,3)	(11,1)	(2,2)	(56,1)	(1,0)	(1,0)	(1,0)	(1,0)	(1,0)	(1,0)	(1,0)	
L1D -400>	(16,1)	(1,3)	(400,4)	(0,8)	(392,1)	(-1,1)	(44,20)	(367,1)	(401,4)	(374,1)	(3,2)	(364,1)	(5,23)	(406,1)	(-86,1)	(260,1)	
L1D -399>	(1,3)	(9,24)	(5,7)	(399,3)	(0,5)	(400,1)	(17,1)	(-27,30)	(4,5)	(2,2)	(16,7)	(3,1)	(396,1)	(-1,1)	(1,0)	(1,0)	
L1D -398>	(9,2)	(-84,1)	(-95,1)	(502,1)	(1,3)	(386,1)	(406,1)	(0,5)	(32,1)	(17,1)	(398,4)	(85,1)	(26,11)	(18,1)	(388,1)	(395,1)	
L1D -397>	(398,2)	(1,1)	(0,2)	(397,3)	(2,1)	(26,1)	(-43,1)	(1,0)	(1,0)	(1,0)	(1,0)	(1,0)	(1,0)	(1,0)	(1,0)	(1,0)	
L1D -396>	(0,6)	(1,4)	(88,3)	(28,1)	(9,2)	(396,5)	(397,3)	(-58,1)	(-1,1)	(400,1)	(5,1)	(4,1)	(424,1)	(91,1)	(1,0)	(1,0)	
L1D -395>	(1,2)	(83,1)	(2,1)	(0,2)	(17,1)	(395,3)	(27,1)	(9,8)	(5,7)	(8,1)	(44,9)	(-1,1)	(-61,1)	(1,0)	(1,0)	(1,0)	
L1D -394>	(0,7)	(37,1)	(376,3)	(71,1)	(-1,2)	(88,1)	(408,1)	(3,1)	(394,4)	(1,3)	(9,3)	(26,3)	(-78,1)	(392,1)	(1,0)	(1,0)	
L1D -393>	(0,3)	(1,1)	(393,4)	(2,3)	(422,1)	(5,1)	(391,4)	(1,0)	(1,0)	(1,0)	(1,0)	(1,0)	(1,0)	(1,0)	(1,0)	(1,0)	
L1D -392>	(0,3)	(393,4)	(392,1)	(9,2)	(160,1)	(1,4)	(5,3)	(391,1)	(380,1)	(390,4)	(1,0)	(1,0)	(1,0)	(1,0)	(1,0)	(1,0)	
L1D -391>	(1,1)	(29,1)	(391,1)	(-60,2)	(368,1)	(44,1)	(392,1)	(389,4)	(1,0)	(1,0)	(1,0)	(1,0)	(1,0)	(1,0)	(1,0)	(1,0)	
L1D -390>	(-2,1)	(389,2)	(0,6)	(24,1)	(391,1)	(390,5)	(5,1)	(9,1)	(392,1)	(2,1)	(1,2)	(-1,1)	(-10,2)	(324,1)	(388,4)	(1,0)	
L1D -389>	(-5,1)	(88,1)	(0,4)	(-4,1)	(9,1)	(1,1)	(390,2)	(414,1)	(-69,1)	(-1,1)	(387,4)	(1,0)	(1,0)	(1,0)	(1,0)	(1,0)	
L1D -388>	(0,4)	(126,1)	(380,2)	(374,1)	(388,1)	(3,1)	(389,4)	(376,1)	(352,1)	(1,1)	(386,4)	(1,0)	(1,0)	(1,0)	(1,0)	(1,0)	
L1D -387>	(0,5)	(1,4)	(2,1)	(114,21)	(9,4)	(388,1)	(387,2)	(152,2)	(-10,1)	(-16,16)	(56,2)	(-41,1)	(386,1)	(414,1)	(385,4)	(1,0)	
L1D -386>	(386,100)	(0,9)	(-31,14)	(383,1)	(384,4)	(1,0)	(1,0)	(1,0)	(1,0)	(1,0)	(1,0)	(1,0)	(1,0)	(1,0)	(1,0)	(1,0)	
L1D -385>	(-6,1)	(17,1)	(386,1)	(385,2)	(-2,1)	(0,6)	(150,1)	(5,1)	(2,1)	(383,3)	(1,0)	(1,0)	(1,0)	(1,0)	(1,0)	(1,0)	
L1D -384>	(5,2)	(1,3)	(372,2)	(406,1)	(403,2)	(68,1)	(358,1)	(26,1)	(385,2)	(410,1)	(382,4)	(1,0)	(1,0)	(1,0)	(1,0)	(1,0)	
L1D -383>	(0,4)	(90,2)	(9,4)	(383,3)	(382,1)	(5,1)	(-1,1)	(381,4)	(1,0)	(1,0)	(1,0)	(1,0)	(1,0)	(1,0)	(1,0)	(1,0)	
L1D -382>	(394,1)	(388,2)	(-5,1)	(0,3)	(382,3)	(44,2)	(146,1)	(-94,1)	(380,4)	(1,0)	(1,0)	(1,0)	(1,0)	(1,0)	(1,0)	(1,0)	
L1D -381>	(0,5)	(114,110)	(152,6)	(9,2)	(357,1)	(126,1)	(82,2)	(366,1)	(29,1)	(44,1)	(381,1)	(85,1)	(414,1)	(382,1)	(379,4)	(-4,1)	
L1D -380>	(380,4)	(-1,1)	(381,2)	(0,3)	(6,2)	(-38,1)	(1,5)	(26,4)	(24,1)	(9,1)	(378,4)	(218,1)	(1,0)	(1,0)	(1,0)	(1,0)	
L1D -379>	(379,1)	(0,3)	(-5,1)	(1,3)	(5,1)	(186,1)	(-8,10)	(-16,5)	(3,1)	(-21,1)	(2,1)	(-14,1)	(377,4)	(1,0)	(1,0)	(1,0)	
L1D -378>	(3,1)	(9,9)	(-1,1)	(0,5)	(160,1)	(-98,1)	(128,1)	(4,3)	(5,6)	(18,4)	(2,5)	(1,2)	(378,1)	(376,4)	(1,0)	(1,0)	
L1D -377>	(1,7)	(0,4)	(381,2)	(375,4)	(110,4)	(3,1)	(377,4)	(-7,1)	(14,1)	(4,5)	(386,12)	(382,4)	(9,6)	(-2,1)	(5,2)	(53,1)	
L1D -376>	(0,5)	(377,3)	(44,2)	(16,13)	(3,1)	(1,2)	(364,1)	(8,1)	(382,1)	(9,1)	(374,4)	(168,1)	(1,0)	(1,0)	(1,0)	(1,0)	
L1D -375>	(2,3)	(1,2)	(227,1)	(338,1)	(87,1)	(0,5)	(124,1)	(375,1)	(18,14)	(374,1)	(368,1)	(448,1)	(373,4)	(1,0)	(1,0)	(1,0)	
L1D -374>	(6,2)	(1,4)	(9,3)	(18,1)	(332,1)	(30,1)	(50,2)	(2,1)	(0,3)	(5,2)	(4,1)	(222,1)	(374,1)	(372,4)	(1,0)	(1,0)	
L1D -373>	(1,2)	(0,4)	(3,1)	(102,1)	(373,3)	(6,1)	(4,7)	(5,10)	(382,5)	(16,2)	(125,1)	(371,4)	(1,0)	(1,0)	(1,0)	(1,0)	
L1D -372>	(370,4)	(3,1)	(0,4)	(2,3)	(-50,1)	(20,1)	(5,5)	(1,5)	(126,1)	(44,4)	(4,6)	(26,16)	(18,2)	(9,6)	(381,1)	(482,1)	
L1D -371>	(72,10)	(0,7)	(15,1)	(1,7)	(371,4)	(-1,1)	(9,1)	(127,1)	(4,2)	(2,1)	(44,3)	(60,1)	(195,1)	(56,1)	(416,1)	(369,4)	
L1D -370>	(6,1)	(370,4)	(1,8)	(0,2)	(44,4)	(-1,2)	(377,1)	(374,2)	(8,1)	(371,1)	(3,5)	(192,1)	(2,1)	(368,4)	(1,0)	(1,0)	
L1D -369>	(39,1)	(9,5)	(4,4)	(2,3)	(0,1)	(369,1)	(27,1)	(-7,1)	(1,6)	(5,6)	(46,2)	(45,4)	(370,1)	(412,1)	(-1,1)	(367,4)	
L1D -368>	(-10,15)	(1,93)	(366,4)	(44,117)	(45,78)	(0,39)	(-39,2)	(-26,3)	(-27,5)	(49,16)	(4,21)	(48,11)	(5,9)	(2,8)	(-5,17)	(-4,5)	
L1D -367>	(0,42)	(365,4)	(-5,4)	(1,26)	(2,1)	(24,1)	(-1,6)	(62,1)	(-7,1)	(17,2)	(367,1)	(44,99)	(3,5)	(-9,8)	(-10,5)	(5,1)	
L1D -366>	(331,2)	(9,58)	(6,1)	(88,1)	(385,1)	(0,9)	(-18,1)	(320,1)	(1,6)	(3,3)	(44,4)	(4,1)	(370,1)	(108,1)	(364,4)	(418,1)	
L1D -365>	(60,14)	(9,6)	(0,6)	(1,4)	(-1,2)	(4,1)	(366,2)	(365,2)	(8,7)	(5,3)	(40,1)	(2,1)	(363,4)	(1,0)	(1,0)	(1,0)	
L1D -364>	(5,10)	(362,1)	(9,1)	(364,0)	(44,87)	(0,0)	(276,0)	(-35,0)	(-31,0)	(-26,0)	(-3,0)	(4,0)	(-4,0)	(1,1)	(3,0)	(2,0)	
L1D -363>	(1,9)	(88,2)	(361,4)	(3,2)	(9,50)	(-7,1)	(352,1)	(2,1)	(0,9)	(327,1)	(44,126)	(-36,4)	(48,16)	(4,19)	(-31,2)	(5,3)	
L1D -362>	(-1,2)	(0,10)	(1,5)	(85,1)	(-35,1)	(230,1)	(331,5)	(400,1)	(5,1)	(9,16)	(8,1)	(362,6)	(78,2)	(155,1)	(360,4)	(69,1)	
L1D -361>	(0,46)	(331,7)	(362,2)	(1,4)	(88,16)	(359,4)	(-1,4)	(91,1)	(62,2)	(-87,5)	(330,3)	(-16,2)	(125,1)	(2,1)	(82,1)	(59,1)	
L1D -360>	(0,4)	(88,2)	(1,8)	(358,4)	(9,4)	(5,4)	(4,5)	(8,22)	(36,1)	(37,1)	(3,2)	(331,1)	(363,1)	(-2,1)	(-1,2)	(130,1)	
L1D -359>	(60,78)	(0,2)	(1,4)	(357,4)	(359,1)	(6,1)	(5,3)	(3,0)	(-8,0)	(9,8)	(36,0)	(13,1)	(1,0)	(1,0)	(1,0)	(1,0)	
L1D -358>	(358,3)	(1,9)	(234,1)	(336,1)	(60,4)	(0,3)	(20,1)	(176,1)	(4,4)	(9,2)	(44,1)	(-84,1)	(6,1)	(24,1)	(356,4)	(1,0)	
L1D -357>	(355,4)	(1,7)	(-3,1)	(0,6)	(6,3)	(222,2)	(-27,3)	(88,1)	(5,3)	(8,4)	(-8,1)	(195,1)	(330,2)	(4,1)	(141,1)	(33,1)	
L1D -356>	(1,12)	(0,13)	(88,5)	(9,4)	(354,4)	(240,1)	(332,1)	(24,1)	(-18,1)	(-39,52)	(5,65)	(87,1)	(50,1)	(41,39)	(-44,1)	(344,1)	
L1D -355>	(1,30)	(56,3)	(0,20)	(88,12)	(-14,1)	(355,3)	(356,1)	(2,2)	(370,1)	(350,3)	(353,5)	(4,18)	(5,13)	(9,2)	(31,2)	(-1,2)	
L1D -354>	(1,116)	(0,7)	(302,0)	(352,2)	(88,9)	(5,0)	(2,1)	(-9,0)	(9,1)	(-16,0)	(69,0)	(1,0)	(1,0)	(1,0)	(1,0)	(1,0)	
L1D -353>	(0,73)	(1,111)	(88,97)	(176,1)	(-1,6)	(-7,0)	(8,0)	(146,0)	(1,0)	(1,0)	(1,0)	(1,0)	(1,0)	(1,0)	(1,0)	(1,0)	
L1D -352>	(0,68)	(88,26)	(162,0)	(-1,0)	(18,0)	(1,0)	(26,0)	(2,0)	(1,0)	(1,0)	(1,0)	(1,0)	(1,0)	(1,0)	(1,0)	(1,0)	
L1D -351>	(0,56)	(3,1)	(1,22)	(88,113)	(352,1)	(-1,10)	(69,1)	(2,1)	(349,4)	(87,2)	(-44,0)	(1,0)	(1,0)	(1,0)	(1,0)	(1,0)	
L1D -350>	(322,97)	(420,0)	(348,0)	(-3,0)	(1,0)	(1,0)	(1,0)	(1,0)	(1,0)	(1,0)	(1,0)	(1,0)	(1,0)	(1,0)	(1,0)	(1,0)	
L1D -349>	(300,1)	(2,1)	(24,1)	(0,5)	(81,1)	(13,1)	(-108,1)	(350,1)	(349,1)	(89,2)	(8,6)	(-37,1)	(56,1)	(64,1)	(-3,1)	(347,4)	
L1D -348>	(0,7)	(349,1)	(2,1)	(1,3)	(348,2)	(320,61)	(6,1)	(-74,1)	(351,1)	(3,1)	(-1,2)	(33,1)	(346,4)	(26,1)	(1,0)	(1,0)	
L1D -347>	(2,1)	(0,3)	(1,1)	(5,2)	(319,46)	(109,1)	(9,4)	(84,1)	(16,1)	(-1,1)	(3,1)	(64,1)	(63,1)	(345,4)	(347,1)	(1,0)	
L1D -346>	(341,23)	(4,103)	(0,15)	(344,1)	(298,0)	(24,0)	(20,0)	(26,0)	(1,0)	(1,0)	(1,0)	(1,0)	(1,0)	(1,0)	(1,0)	(1,0)	
L1D -345>	(2,3)	(1,4)	(0,5)	(345,2)	(88,1)	(222,1)	(24,1)	(47,1)	(23,3)	(5,1)	(343,4)	(1,0)	(1,0)	(1,0)	(1,0)	(1,0)	
L1D -344>	(0,7)	(347,2)	(88,1)	(26,1)	(171,1)	(4,1)	(442,1)	(34,1)	(290,1)	(5,1)	(17,2)	(-2,2)	(344,1)	(1,1)	(342,4)	(1,0)	
L1D -343>	(341,0)	(338,19)	(-3,5)	(162,108)	(6,0)	(-70,0)	(24,0)	(1,0)	(1,0)	(1,0)	(1,0)	(1,0)	(1,0)	(1,0)	(1,0)	(1,0)	
L1D -342>	(-4,28)	(1,6)	(-1,2)	(0,7)	(340,4)	(337,24)	(20,1)	(342,5)	(9,3)	(343,1)	(-12,1)	(40,2)	(143,1)	(125,1)	(266,1)	(112,1)	
L1D -341>	(0,15)	(341,5)	(5,16)	(4,25)	(358,65)	(339,0)	(346,0)	(83,0)	(1,0)	(1,0)	(1,0)	(1,0)	(1,0)	(1,0)	(1,0)	(1,0)	
L1D -340>	(0,12)	(4,2)	(1,4)	(245,1)	(366,1)	(326,4)	(-24,1)	(324,1)	(91,1)	(9,1)	(142,1)	(340,1)	(338,4)	(83,1)	(3,1)	(1,0)	
L1D -339>	(286,25)	(2,2)	(276,83)	(-1,2)	(0,3)	(114,1)	(4,1)	(336,1)	(337,4)	(-13,1)	(1,1)	(1,0)	(1,0)	(1,0)	(1,0)	(1,0)	
L1D -338>	(1,15)	(-3,66)	(338,3)	(336,1)	(0,1)	(9,2)	(244,1)	(6,0)	(343,12)	(32,0)	(339,1)	(52,0)	(2,0)	(346,0)	(41,1)	(5,1)	
L1D -337>	(342,87)	(18,0)	(104,4)	(117,107)	(-4,30)	(167,11)	(335,2)	(114,84)	(0,1)	(40,0)	(13,0)	(346,0)	(9,0)	(2,0)	(341,0)	(1,0)	
L1D -336>	(341,7)	(9,21)	(0,10)	(4,2)	(1,9)	(16,5)	(345,2)	(50,2)	(326,27)	(164,9)	(245,12)	(366,9)	(83,10)	(334,4)	(220,1)	(196,8)	
L1D -335>	(0,5)	(333,4)	(9,2)	(6,1)	(18,1)	(162,1)	(42,1)	(92,1)	(336,1)	(-16,57)	(4,3)	(376,1)	(327,1)	(-44,1)	(3,1)	(148,1)	
L1D -334>	(334,4)	(0,6)	(1,2)	(337,1)	(4,1)	(75,1)	(-44,1)	(252,1)	(132,1)	(328,1)	(332,4)	(339,1)	(1,0)	(1,0)	(1,0)	(1,0)	
L1D -333>	(0,12)	(5,29)	(9,33)	(4,17)	(41,3)	(1,5)	(331,4)	(-1,2)	(54,1)	(6,1)	(92,1)	(-61,2)	(294,1)	(2,2)	(40,4)	(14,2)	
L1D -332>	(286,19)	(1,12)	(330,30)	(333,4)	(4,10)	(332,1)	(-1,1)	(50,1)	(-18,1)	(337,1)	(7,3)	(341,2)	(9,1)	(122,1)	(0,3)	(365,1)	
L1D -331>	(332,7)	(331,18)	(1,8)	(83,67)	(330,34)	(41,8)	(155,44)	(326,96)	(367,26)	(366,58)	(245,27)	(329,1)	(196,119)	(164,67)	(358,19)	(4,4)	
L1D -330>	(286,9)	(5,1)	(0,2)	(44,1)	(164,25)	(328,2)	(276,43)	(20,1)	(4,1)	(2,1)	(1,2)	(155,104)	(114,1)	(74,3)	(41,1)	(195,1)	
L1D -329>	(325,3)	(4,8)	(40,28)	(41,5)	(-4,1)	(9,114)	(203,0)	(0,0)	(1,0)	(122,0)	(62,0)	(324,0)	(1,0)	(1,0)	(1,0)	(1,0)	
L1D -328>	(15,69)	(328,1)	(22,54)	(9,5)	(54,0)	(326,1)	(-9,0)	(4,7)	(244,0)	(1,0)	(0,2)	(5,0)	(41,0)	(329,0)	(2,0)	(3,0)	
L1D -327>	(0,6)	(1,9)	(-16,1)	(7,93)	(-1,1)	(325,4)	(5,12)	(47,1)	(6,1)	(24,0)	(368,17)	(40,1)	(4,1)	(-10,1)	(26,1)	(3,2)	
L1D -326>	(2,13)	(1,17)	(0,14)	(329,1)	(4,13)	(146,1)	(9,8)	(18,25)	(40,2)	(41,1)	(-138,1)	(3,1)	(324,4)	(1,0)	(1,0)	(1,0)	
L1D -325>	(41,50)	(5,91)	(323,0)	(40,2)	(9,2)	(1,0)	(4,0)	(-1,0)	(1,0)	(1,0)	(1,0)	(1,0)	(1,0)	(1,0)	(1,0)	(1,0)	
L1D -324>	(322,0)	(9,100)	(5,0)	(-44,0)	(40,17)	(4,8)	(41,0)	(0,0)	(-9,0)	(-4,0)	(-5,0)	(335,0)	(16,0)	(1,0)	(-1,0)	(-50,0)	
L1D -323>	(9,26)	(321,0)	(4,1)	(-10,3)	(0,0)	(3,0)	(44,27)	(5,110)	(1,0)	(-45,0)	(40,0)	(-44,0)	(18,0)	(49,4)	(-26,0)	(81,0)	
L1D -322>	(5,6)	(323,2)	(86,0)	(0,1)	(41,3)	(314,0)	(3,0)	(24,0)	(-36,0)	(1,0)	(-2,0)	(4,0)	(240,0)	(322,0)	(2,0)	(-53,90)	
L1D -321>	(16,6)	(5,50)	(317,0)	(41,73)	(316,0)	(1,3)	(53,0)	(0,1)	(40,0)	(336,0)	(390,0)	(321,0)	(24,0)	(319,1)	(348,7)	(-5,0)	
L1D -320>	(40,40)	(348,82)	(16,51)	(1,33)	(318,0)	(-44,0)	(0,0)	(4,0)	(5,0)	(41,35)	(315,0)	(347,0)	(-4,0)	(26,0)	(-9,0)	(1,0)	
L1D -319>	(347,123)	(6,1)	(23,0)	(-44,0)	(4,0)	(9,38)	(5,0)	(-5,0)	(0,0)	(-9,0)	(-2,0)	(-1,0)	(81,0)	(1,0)	(1,0)	(1,0)	
L1D -318>	(9,100)	(323,0)	(0,0)	(359,0)	(5,0)	(44,0)	(1,0)	(1,0)	(1,0)	(1,0)	(1,0)	(1,0)	(1,0)	(1,0)	(1,0)	(1,0)	
L1D -317>	(23,2)	(5,1)	(0,11)	(1,1)	(353,1)	(9,3)	(6,1)	(316,1)	(-9,1)	(317,1)	(-13,1)	(358,1)	(2,2)	(315,4)	(1,0)	(1,0)	
L1D -316>	(0,7)	(41,79)	(5,8)	(1,2)	(317,1)	(4,1)	(354,1)	(146,1)	(-11,1)	(-10,2)	(-8,2)	(17,1)	(314,4)	(1,0)	(1,0)	(1,0)	
L1D -315>	(9,5)	(3,3)	(5,5)	(-4,13)	(4,11)	(-5,10)	(0,19)	(-9,3)	(1,4)	(313,4)	(-13,3)	(26,1)	(144,1)	(319,1)	(-1,1)	(40,37)	
L1D -314>	(1,7)	(94,1)	(0,8)	(88,3)	(182,1)	(4,1)	(61,2)	(312,3)	(20,1)	(5,13)	(1,0)	(1,0)	(1,0)	(1,0)	(1,0)	(1,0)	
L1D -313>	(0,12)	(313,92)	(6,4)	(1,4)	(-20,1)	(24,2)	(41,2)	(311,4)	(-1,1)	(1,0)	(1,0)	(1,0)	(1,0)	(1,0)	(1,0)	(1,0)	
L1D -312>	(-137,1)	(19,1)	(315,1)	(0,5)	(1,4)	(4,5)	(-4,1)	(18,1)	(-1,1)	(310,4)	(35,1)	(44,1)	(264,1)	(1,0)	(1,0)	(1,0)	
L1D -311>	(0,7)	(-1,1)	(24,2)	(1,4)	(9,4)	(18,1)	(-14,1)	(313,1)	(326,1)	(44,1)	(4,1)	(309,4)	(6,2)	(310,1)	(1,0)	(1,0)	
L1D -310>	(313,1)	(4,4)	(60,1)	(0,4)	(6,1)	(-20,1)	(-2,1)	(1,4)	(-16,1)	(9,14)	(307,1)	(308,4)	(3,4)	(304,9)	(1,0)	(1,0)	
L1D -309>	(6,6)	(5,2)	(1,2)	(3,3)	(24,2)	(0,5)	(-13,1)	(9,3)	(309,2)	(29,1)	(-1,2)	(125,1)	(307,4)	(311,1)	(1,0)	(1,0)	
L1D -308>	(306,4)	(0,13)	(248,1)	(1,4)	(198,1)	(309,1)	(20,2)	(279,1)	(4,1)	(-9,1)	(6,1)	(308,1)	(8,27)	(-8,4)	(311,1)	(2,2)	
L1D -307>	(0,7)	(306,1)	(6,1)	(1,1)	(311,1)	(-5,1)	(3,1)	(-44,1)	(9,1)	(26,1)	(305,4)	(264,1)	(1,0)	(1,0)	(1,0)	(1,0)	
L1D -306>	(0,89)	(304,0)	(306,11)	(9,0)	(1,0)	(1,0)	(1,0)	(1,0)	(1,0)	(1,0)	(1,0)	(1,0)	(1,0)	(1,0)	(1,0)	(1,0)	
L1D -305>	(6,4)	(303,4)	(0,13)	(1,7)	(321,6)	(24,5)	(311,3)	(43,4)	(305,1)	(-20,1)	(-53,3)	(19,1)	(8,5)	(-44,1)	(4,1)	(17,1)	
L1D -304>	(19,1)	(0,13)	(14,1)	(-24,1)	(1,1)	(20,5)	(302,5)	(4,3)	(108,1)	(58,1)	(-81,1)	(5,1)	(7,1)	(146,1)	(6,1)	(-71,1)	
L1D -303>	(-20,3)	(0,14)	(3,2)	(301,4)	(-27,5)	(24,2)	(222,2)	(276,2)	(-128,1)	(5,1)	(-1,1)	(141,1)	(234,1)	(88,2)	(6,4)	(303,1)	
L1D -302>	(1,5)	(0,22)	(300,6)	(-6,1)	(4,1)	(9,4)	(-100,1)	(354,1)	(302,92)	(26,6)	(19,1)	(287,1)	(146,2)	(88,1)	(305,1)	(307,1)	
L1D -301>	(2,10)	(6,6)	(0,14)	(3,8)	(299,4)	(-4,9)	(294,1)	(296,1)	(5,1)	(-13,1)	(301,2)	(9,2)	(1,36)	(8,3)	(19,1)	(26,1)	
L1D -300>	(3,1)	(303,1)	(100,1)	(-38,1)	(1,8)	(9,5)	(146,1)	(0,9)	(305,2)	(6,4)	(275,1)	(2,19)	(18,41)	(298,3)	(20,1)	(386,1)	
L1D -299>	(321,70)	(9,3)	(297,4)	(88,2)	(14,4)	(35,1)	(56,1)	(0,10)	(6,2)	(2,7)	(1,89)	(-1,7)	(-110,1)	(76,1)	(388,1)	(17,1)	
L1D -298>	(0,23)	(-80,1)	(296,6)	(301,4)	(297,1)	(110,1)	(2,2)	(-106,1)	(146,1)	(-16,4)	(16,22)	(1,4)	(-3,2)	(152,1)	(260,1)	(299,2)	
L1D -297>	(26,12)	(9,12)	(-20,4)	(0,12)	(295,4)	(24,7)	(-33,2)	(216,1)	(299,1)	(6,6)	(225,1)	(296,1)	(5,2)	(2,5)	(49,1)	(260,1)	
L1D -296>	(336,2)	(301,3)	(294,4)	(1,3)	(0,15)	(297,1)	(216,1)	(4,3)	(299,1)	(19,3)	(6,1)	(-9,1)	(272,1)	(305,10)	(300,2)	(9,7)	
L1D -295>	(0,5)	(1,4)	(6,11)	(258,2)	(19,3)	(293,3)	(77,1)	(47,2)	(297,2)	(272,1)	(317,2)	(16,1)	(125,1)	(-136,1)	(167,1)	(-1,1)	
L1D -294>	(334,7)	(19,3)	(297,2)	(291,38)	(17,99)	(0,16)	(-8,32)	(14,12)	(6,104)	(18,5)	(1,3)	(26,11)	(292,4)	(2,10)	(-50,1)	(296,1)	
L1D -293>	(9,9)	(6,3)	(0,10)	(44,1)	(24,4)	(12,64)	(-9,35)	(4,1)	(5,3)	(1,4)	(-1,2)	(35,1)	(22,1)	(291,4)	(26,2)	(315,0)	
L1D -292>	(0,9)	(293,2)	(3,2)	(6,3)	(8,2)	(19,2)	(254,1)	(290,4)	(134,1)	(4,2)	(-1,2)	(2,1)	(-13,96)	(5,1)	(20,1)	(1,3)	
L1D -291>	(294,9)	(20,1)	(6,1)	(295,1)	(0,4)	(19,1)	(-11,105)	(24,1)	(9,1)	(1,1)	(-20,1)	(301,1)	(288,1)	(289,4)	(131,1)	(307,1)	
L1D -290>	(2,12)	(0,13)	(26,7)	(-9,5)	(330,107)	(331,5)	(1,4)	(288,3)	(-14,1)	(14,2)	(-7,1)	(19,4)	(130,1)	(146,1)	(282,1)	(278,1)	
L1D -289>	(289,0)	(-3,0)	(285,0)	(9,10)	(-13,0)	(5,0)	(41,94)	(40,7)	(2,0)	(6,0)	(0,0)	(1,0)	(1,0)	(1,0)	(1,0)	(1,0)	
L1D -288>	(4,18)	(0,28)	(2,3)	(5,5)	(289,3)	(9,34)	(40,124)	(1,5)	(328,3)	(6,4)	(8,40)	(41,5)	(3,3)	(286,3)	(120,1)	(-20,2)	
L1D -287>	(6,2)	(286,1)	(8,91)	(3,2)	(0,6)	(285,1)	(291,1)	(-1,0)	(289,0)	(328,0)	(44,0)	(-5,0)	(41,0)	(2,1)	(1,0)	(24,0)	
L1D -286>	(286,2)	(-1,4)	(5,5)	(20,8)	(284,4)	(289,5)	(4,2)	(0,17)	(-2,3)	(-4,1)	(9,29)	(215,1)	(24,1)	(292,1)	(301,1)	(44,3)	
L1D -285>	(4,24)	(41,7)	(6,8)	(9,8)	(3,11)	(283,4)	(0,23)	(242,1)	(24,4)	(26,1)	(19,1)	(285,7)	(-20,1)	(1,4)	(37,6)	(40,2)	
L1D -284>	(19,0)	(40,86)	(9,9)	(4,15)	(282,0)	(-4,0)	(0,0)	(20,0)	(1,0)	(-1,0)	(5,2)	(-40,0)	(-84,0)	(-85,0)	(-109,0)	(-213,0)	
L1D -283>	(4,100)	(117,0)	(88,0)	(9,2)	(40,0)	(279,0)	(81,0)	(-5,0)	(0,0)	(41,0)	(-16,0)	(1,0)	(-1,0)	(283,0)	(-41,0)	(44,0)	
L1D -282>	(84,1)	(280,0)	(41,0)	(30,0)	(19,1)	(113,0)	(188,0)	(285,0)	(0,1)	(271,0)	(1,0)	(283,0)	(76,0)	(44,66)	(8,0)	(40,0)	
L1D -281>	(42,60)	(290,9)	(41,15)	(1,4)	(6,7)	(0,13)	(279,4)	(270,2)	(9,2)	(256,1)	(24,8)	(4,21)	(-20,4)	(19,1)	(26,1)	(-1,1)	
L1D -280>	(278,0)	(41,88)	(0,0)	(9,0)	(271,0)	(40,0)	(-44,0)	(7,0)	(4,0)	(284,0)	(280,0)	(-1,0)	(-20,0)	(1,0)	(1,0)	(1,0)	
L1D -279>	(6,1)	(9,19)	(-44,5)	(-20,5)	(2,2)	(24,9)	(0,111)	(40,55)	(1,4)	(-121,4)	(4,83)	(8,48)	(41,2)	(-9,68)	(277,4)	(113,2)	
L1D -278>	(1,7)	(0,13)	(-2,4)	(240,1)	(281,4)	(12,4)	(20,8)	(2,3)	(272,2)	(19,11)	(-6,3)	(44,34)	(85,3)	(283,3)	(276,4)	(-20,3)	
L1D -277>	(0,83)	(277,3)	(273,35)	(3,0)	(296,0)	(248,0)	(-20,0)	(28,0)	(1,0)	(1,0)	(1,0)	(1,0)	(1,0)	(1,0)	(1,0)	(1,0)	
L1D -276>	(2,8)	(274,10)	(14,3)	(0,15)	(6,7)	(4,3)	(330,2)	(279,8)	(8,2)	(19,14)	(26,6)	(1,3)	(-27,6)	(276,2)	(141,1)	(20,14)	
L1D -275>	(36,27)	(275,14)	(1,20)	(276,3)	(26,8)	(5,7)	(0,37)	(8,5)	(-16,15)	(-4,12)	(9,10)	(41,49)	(40,1)	(19,2)	(273,4)	(6,3)	
L1D -274>	(-5,12)	(-49,8)	(20,2)	(279,2)	(8,21)	(-12,1)	(38,1)	(0,26)	(4,5)	(1,16)	(2,22)	(264,1)	(50,2)	(-6,2)	(-18,1)	(272,6)	
L1D -273>	(277,113)	(1,26)	(17,1)	(6,4)	(9,1)	(412,3)	(0,7)	(-20,1)	(273,3)	(420,2)	(-14,1)	(411,3)	(271,2)	(-1,1)	(234,1)	(263,1)	
L1D -272>	(16,16)	(6,2)	(0,21)	(272,3)	(50,2)	(295,1)	(270,11)	(88,2)	(4,3)	(-1,3)	(273,2)	(275,4)	(252,1)	(20,4)	(1,10)	(19,1)	
L1D -271>	(-20,0)	(0,2)	(271,0)	(6,0)	(41,93)	(26,0)	(19,0)	(269,0)	(267,0)	(50,0)	(1,1)	(44,0)	(3,0)	(1,0)	(1,0)	(1,0)	
L1D -270>	(1,4)	(2,1)	(-33,1)	(-1,1)	(9,6)	(0,5)	(40,6)	(268,1)	(222,1)	(6,0)	(275,1)	(-9,81)	(4,1)	(-20,1)	(20,4)	(241,0)	
L1D -269>	(26,5)	(269,3)	(3,119)	(4,1)	(6,2)	(266,1)	(0,8)	(1,5)	(267,2)	(29,1)	(-20,4)	(16,11)	(268,5)	(24,2)	(13,12)	(-2,1)	
L1D -268>	(26,12)	(-26,2)	(18,2)	(20,24)	(0,25)	(6,3)	(2,21)	(5,6)	(10,1)	(19,47)	(292,2)	(-20,6)	(1,8)	(266,4)	(268,2)	(271,2)	
L1D -267>	(1,19)	(420,74)	(412,63)	(265,5)	(19,2)	(24,8)	(411,25)	(263,8)	(2,5)	(29,3)	(88,12)	(0,20)	(271,1)	(-26,1)	(6,3)	(419,2)	
L1D -266>	(223,1)	(0,7)	(1,100)	(268,1)	(2,2)	(277,1)	(88,9)	(-20,2)	(20,0)	(4,1)	(19,5)	(-1,0)	(269,0)	(9,0)	(174,0)	(266,0)	
L1D -265>	(0,73)	(262,1)	(1,16)	(264,0)	(88,71)	(24,0)	(19,0)	(265,0)	(267,0)	(1,0)	(1,0)	(1,0)	(1,0)	(1,0)	(1,0)	(1,0)	
L1D -264>	(0,126)	(88,53)	(265,0)	(-1,0)	(19,0)	(1,0)	(262,0)	(264,0)	(206,0)	(20,0)	(1,0)	(1,0)	(1,0)	(1,0)	(1,0)	(1,0)	
L1D -263>	(86,1)	(0,46)	(263,1)	(24,3)	(261,2)	(1,9)	(88,64)	(29,1)	(87,1)	(220,0)	(26,1)	(2,0)	(-1,2)	(-42,1)	(-20,0)	(9,0)	
L1D -262>	(260,4)	(-18,2)	(20,25)	(0,10)	(2,7)	(1,3)	(-12,4)	(267,1)	(219,1)	(19,6)	(263,1)	(322,1)	(6,4)	(146,1)	(-43,3)	(-20,3)	
L1D -261>	(24,8)	(26,50)	(9,20)	(6,6)	(0,19)	(1,9)	(3,2)	(-9,87)	(10,9)	(-20,3)	(40,19)	(261,6)	(259,4)	(252,1)	(30,1)	(224,1)	
L1D -260>	(0,8)	(2,7)	(-26,2)	(1,5)	(4,1)	(-6,2)	(265,2)	(296,1)	(258,3)	(-96,1)	(272,1)	(20,7)	(92,1)	(6,2)	(72,1)	(-18,1)	
L1D -259>	(3,12)	(257,4)	(0,15)	(-9,2)	(1,9)	(13,2)	(261,2)	(220,8)	(239,1)	(24,3)	(10,6)	(259,7)	(250,1)	(240,1)	(218,2)	(2,2)	
L1D -258>	(283,1)	(62,123)	(1,32)	(-20,1)	(20,2)	(9,4)	(0,3)	(256,1)	(6,1)	(76,1)	(186,0)	(61,0)	(1,0)	(1,0)	(1,0)	(1,0)	
L1D -257>	(0,53)	(98,78)	(19,0)	(99,4)	(24,3)	(60,93)	(-20,0)	(261,0)	(257,0)	(-34,0)	(61,13)	(9,0)	(240,0)	(26,0)	(2,0)	(1,1)	
L1D -256>	(251,11)	(1,78)	(249,1)	(18,0)	(19,0)	(8,2)	(9,1)	(239,2)	(0,1)	(20,2)	(-164,0)	(255,0)	(6,0)	(1,0)	(1,0)	(1,0)	
L1D -255>	(257,1)	(84,93)	(0,85)	(250,34)	(266,1)	(26,3)	(20,1)	(253,2)	(-20,1)	(4,1)	(259,3)	(24,2)	(19,1)	(262,0)	(-9,0)	(1,0)	
L1D -254>	(2,24)	(-16,2)	(-12,7)	(257,4)	(0,13)	(-20,9)	(1,5)	(19,10)	(252,4)	(20,45)	(-34,3)	(6,2)	(233,1)	(28,1)	(247,2)	(38,1)	
L1D -253>	(294,5)	(8,32)	(251,4)	(253,16)	(1,8)	(6,3)	(-20,4)	(0,14)	(-1,1)	(7,1)	(-13,1)	(-22,2)	(-18,1)	(208,1)	(17,1)	(252,2)	
L1D -252>	(2,4)	(-20,3)	(9,27)	(20,1)	(-26,1)	(5,6)	(4,5)	(19,4)	(250,4)	(240,1)	(252,1)	(354,1)	(-9,93)	(0,12)	(1,6)	(7,1)	
L1D -251>	(1,71)	(3,1)	(290,1)	(13,0)	(0,0)	(-31,0)	(249,0)	(-20,0)	(42,0)	(-26,0)	(1,0)	(1,0)	(1,0)	(1,0)	(1,0)	(1,0)	
L1D -250>	(84,43)	(-18,2)	(248,2)	(1,1)	(250,2)	(4,2)	(-26,0)	(0,7)	(257,1)	(2,7)	(19,4)	(-20,3)	(273,0)	(290,66)	(291,0)	(252,1)	
L1D -249>	(289,30)	(1,45)	(24,24)	(3,10)	(249,5)	(26,5)	(114,3)	(-27,16)	(0,15)	(8,4)	(303,1)	(19,6)	(-36,13)	(247,4)	(222,3)	(6,6)	
L1D -248>	(19,1)	(4,3)	(0,1)	(3,0)	(2,0)	(5,0)	(40,124)	(18,0)	(41,2)	(26,0)	(20,1)	(1,0)	(-41,0)	(488,0)	(6,0)	(288,0)	
L1D -247>	(26,32)	(247,10)	(24,3)	(9,5)	(245,3)	(0,11)	(1,119)	(-1,2)	(287,2)	(5,2)	(226,6)	(273,1)	(8,15)	(4,3)	(288,1)	(40,2)	
L1D -246>	(9,2)	(-1,4)	(5,2)	(16,18)	(244,4)	(0,9)	(20,1)	(19,14)	(-16,5)	(287,4)	(-2,1)	(8,100)	(7,108)	(3,1)	(-20,3)	(1,7)	
L1D -245>	(250,84)	(-6,9)	(243,0)	(9,0)	(8,3)	(0,2)	(13,17)	(41,0)	(26,0)	(24,3)	(245,1)	(5,2)	(4,1)	(-20,1)	(1,0)	(247,1)	
L1D -244>	(5,104)	(242,0)	(20,1)	(-12,0)	(282,0)	(4,1)	(0,1)	(9,14)	(247,0)	(6,0)	(-20,0)	(249,0)	(19,0)	(1,1)	(1,0)	(1,0)	
L1D -243>	(0,0)	(24,2)	(9,17)	(4,85)	(3,4)	(5,57)	(239,0)	(245,0)	(204,0)	(-9,1)	(-4,21)	(13,0)	(248,0)	(-1,0)	(1,0)	(279,0)	
L1D -242>	(282,0)	(49,0)	(240,0)	(2,0)	(242,0)	(9,0)	(0,1)	(-9,0)	(1,0)	(235,0)	(20,0)	(-10,1)	(5,32)	(44,68)	(6,0)	(26,0)	
L1D -241>	(5,127)	(0,22)	(24,20)	(241,18)	(26,56)	(-212,1)	(88,1)	(40,83)	(19,2)	(145,1)	(-20,6)	(1,6)	(239,8)	(238,1)	(2,5)	(243,1)	
L1D -240>	(2,1)	(5,108)	(-1,1)	(4,9)	(0,19)	(247,2)	(238,6)	(448,1)	(20,12)	(19,7)	(-4,1)	(27,1)	(40,53)	(239,9)	(6,2)	(44,2)	
L1D -239>	(-20,1)	(19,1)	(239,5)	(234,2)	(1,22)	(40,116)	(241,0)	(210,0)	(0,12)	(243,32)	(9,0)	(-4,10)	(244,0)	(41,9)	(29,0)	(-3,5)	
L1D -238>	(-42,1)	(228,1)	(-10,9)	(5,5)	(0,1)	(239,1)	(231,1)	(238,0)	(-20,1)	(-6,0)	(2,0)	(4,0)	(12,3)	(20,1)	(-44,76)	(40,20)	
L1D -237>	(9,83)	(237,1)	(44,0)	(243,0)	(0,1)	(1,0)	(1,0)	(1,0)	(1,0)	(1,0)	(1,0)	(1,0)	(1,0)	(1,0)	(1,0)	(1,0)	
L1D -236>	(9,82)	(290,1)	(0,6)	(234,2)	(241,1)	(-6,1)	(2,2)	(32,1)	(20,3)	(-20,2)	(247,1)	(-40,1)	(236,1)	(1,2)	(19,1)	(229,1)	
L1D -235>	(235,14)	(24,6)	(2,5)	(1,5)	(0,14)	(233,4)	(5,87)	(41,11)	(374,2)	(242,1)	(-20,3)	(-26,1)	(16,2)	(196,2)	(237,2)	(178,1)	
L1D -234>	(4,26)	(0,35)	(-18,5)	(40,3)	(-6,5)	(5,9)	(-9,13)	(232,4)	(1,6)	(19,7)	(2,5)	(-5,4)	(275,1)	(-118,3)	(9,17)	(288,2)	
L1D -233>	(17,68)	(229,3)	(235,4)	(231,4)	(24,10)	(233,18)	(239,2)	(0,10)	(1,8)	(6,2)	(238,2)	(227,9)	(3,3)	(240,1)	(202,1)	(-48,1)	
L1D -232>	(0,13)	(9,33)	(233,16)	(1,7)	(202,5)	(2,3)	(19,9)	(232,3)	(230,4)	(6,5)	(-20,13)	(20,9)	(4,1)	(14,4)	(273,1)	(88,1)	
L1D -231>	(-16,3)	(229,3)	(231,3)	(-1,3)	(0,26)	(202,2)	(2,2)	(7,3)	(342,1)	(19,1)	(233,3)	(1,6)	(6,2)	(235,1)	(88,1)	(328,1)	
L1D -230>	(4,24)	(2,8)	(0,20)	(8,110)	(220,2)	(-6,2)	(223,6)	(-20,2)	(9,8)	(-18,3)	(20,10)	(1,6)	(229,4)	(38,1)	(259,2)	(228,6)	
L1D -229>	(0,82)	(374,8)	(24,1)	(-9,28)	(1,6)	(227,2)	(26,3)	(4,4)	(-10,95)	(7,3)	(231,2)	(2,2)	(-20,1)	(29,0)	(222,0)	(236,0)	
L1D -228>	(0,15)	(32,8)	(-27,10)	(230,6)	(226,4)	(264,1)	(254,1)	(-20,14)	(-18,4)	(221,1)	(52,1)	(1,4)	(9,4)	(140,1)	(233,2)	(-238,1)	
L1D -227>	(227,28)	(0,15)	(9,4)	(1,15)	(8,8)	(225,4)	(188,19)	(182,1)	(229,5)	(20,1)	(47,1)	(88,2)	(24,1)	(5,1)	(19,2)	(-20,9)	
L1D -226>	(2,4)	(6,7)	(-26,3)	(0,14)	(-3,6)	(1,7)	(224,4)	(232,2)	(233,1)	(271,2)	(88,2)	(292,1)	(246,1)	(187,10)	(20,2)	(-20,6)	
L1D -225>	(225,66)	(24,21)	(26,5)	(0,14)	(29,4)	(9,12)	(1,10)	(-20,25)	(19,5)	(5,8)	(234,12)	(223,4)	(41,10)	(208,1)	(218,1)	(3,2)	
L1D -224>	(20,17)	(0,26)	(-20,7)	(19,16)	(224,15)	(26,15)	(4,3)	(6,2)	(225,7)	(222,4)	(286,1)	(250,1)	(-6,2)	(146,1)	(-4,9)	(-70,1)	
L1D -223>	(0,20)	(225,5)	(-16,13)	(2,10)	(223,21)	(19,4)	(221,4)	(7,4)	(40,1)	(-20,16)	(227,1)	(252,1)	(6,1)	(1,44)	(26,1)	(3,7)	
L1D -222>	(1,26)	(2,18)	(0,17)	(260,1)	(14,3)	(222,3)	(18,35)	(-16,2)	(-20,8)	(26,2)	(220,5)	(-27,11)	(20,2)	(195,9)	(276,2)	(303,2)	
L1D -221>	(0,12)	(1,102)	(-1,3)	(221,16)	(219,4)	(6,4)	(2,28)	(228,1)	(-20,1)	(3,1)	(9,3)	(24,1)	(17,1)	(214,1)	(223,1)	(-3,1)	
L1D -220>	(16,44)	(20,4)	(0,21)	(-26,4)	(-18,2)	(1,11)	(26,3)	(-10,51)	(-20,20)	(5,4)	(218,4)	(227,4)	(253,1)	(225,2)	(-1,1)	(284,1)	
L1D -219>	(6,3)	(19,2)	(219,88)	(0,31)	(217,4)	(226,1)	(3,9)	(434,1)	(246,3)	(224,4)	(-20,14)	(9,5)	(237,1)	(2,5)	(13,1)	(125,1)	
L1D -218>	(216,5)	(9,3)	(-26,2)	(0,20)	(28,1)	(7,1)	(19,1)	(2,20)	(249,28)	(117,1)	(1,2)	(4,4)	(34,1)	(276,2)	(219,1)	(272,1)	
L1D -217>	(217,5)	(215,4)	(6,2)	(1,5)	(0,14)	(246,3)	(224,8)	(29,9)	(-36,1)	(-1,3)	(26,15)	(240,1)	(-20,4)	(19,6)	(2,1)	(219,3)	
L1D -216>	(1,9)	(4,2)	(2,11)	(0,25)	(223,5)	(8,16)	(26,12)	(14,3)	(20,72)	(92,2)	(9,32)	(214,5)	(-20,3)	(27,3)	(216,2)	(189,1)	
L1D -215>	(92,1)	(213,2)	(1,8)	(215,1)	(5,2)	(0,87)	(222,1)	(2,9)	(-20,3)	(6,2)	(7,1)	(9,1)	(217,2)	(224,1)	(-4,1)	(24,1)	
L1D -214>	(0,123)	(-20,1)	(1,4)	(-2,0)	(221,1)	(214,0)	(217,0)	(212,0)	(-1,0)	(219,0)	(276,0)	(20,0)	(1,0)	(1,0)	(1,0)	(1,0)	
L1D -213>	(211,0)	(1,2)	(0,71)	(220,0)	(213,0)	(158,0)	(-20,0)	(1,0)	(1,0)	(1,0)	(1,0)	(1,0)	(1,0)	(1,0)	(1,0)	(1,0)	
L1D -212>	(4,33)	(9,125)	(1,5)	(-20,11)	(5,6)	(0,40)	(3,8)	(210,4)	(392,1)	(253,1)	(245,2)	(6,1)	(-169,1)	(248,2)	(217,2)	(-159,1)	
L1D -211>	(5,10)	(1,14)	(211,30)	(6,8)	(0,54)	(212,9)	(209,4)	(-10,124)	(3,8)	(9,1)	(24,3)	(4,15)	(29,5)	(-20,11)	(352,1)	(218,1)	
L1D -210>	(0,27)	(216,5)	(9,5)	(208,4)	(198,2)	(4,3)	(35,1)	(-6,1)	(494,1)	(3,2)	(250,3)	(1,8)	(-12,3)	(-114,1)	(36,1)	(-11,1)	
L1D -209>	(207,4)	(29,10)	(9,8)	(26,55)	(1,5)	(0,36)	(24,15)	(6,2)	(252,1)	(216,2)	(209,5)	(208,1)	(28,1)	(19,2)	(-116,1)	(246,1)	
L1D -208>	(40,24)	(41,42)	(5,24)	(180,0)	(9,72)	(19,0)	(6,0)	(-20,0)	(0,2)	(210,0)	(208,0)	(3,0)	(20,0)	(4,0)	(2,0)	(1,0)	
L1D -207>	(40,18)	(9,80)	(0,1)	(4,1)	(207,0)	(7,0)	(370,0)	(208,0)	(196,0)	(41,0)	(205,0)	(47,0)	(2,1)	(209,0)	(247,0)	(1,0)	
L1D -206>	(246,22)	(4,10)	(0,32)	(247,4)	(-26,3)	(3,106)	(204,4)	(8,8)	(14,3)	(206,5)	(6,4)	(20,5)	(2,10)	(235,1)	(1,12)	(-1,2)	
L1D -205>	(0,54)	(9,7)	(5,5)	(1,18)	(212,9)	(6,12)	(-16,4)	(207,5)	(40,3)	(3,2)	(203,5)	(88,1)	(242,2)	(4,13)	(234,2)	(24,1)	
L1D -204>	(5,21)	(168,3)	(0,5)	(9,1)	(8,6)	(4,1)	(247,1)	(211,1)	(41,94)	(146,0)	(202,0)	(1,3)	(169,2)	(196,0)	(205,0)	(1,0)	
L1D -203>	(41,83)	(5,18)	(40,87)	(85,0)	(9,41)	(193,4)	(-20,0)	(-4,0)	(4,0)	(243,0)	(0,1)	(1,0)	(-1,0)	(-161,0)	(36,0)	(204,0)	
L1D -202>	(4,11)	(9,73)	(-9,2)	(44,11)	(193,86)	(-3,0)	(6,0)	(-4,3)	(243,0)	(40,0)	(242,0)	(41,0)	(5,2)	(205,0)	(1,0)	(1,0)	
L1D -201>	(193,19)	(29,7)	(9,59)	(0,36)	(5,10)	(242,12)	(1,5)	(-20,2)	(199,4)	(41,32)	(40,6)	(8,14)	(197,7)	(192,6)	(2,2)	(190,1)	
L1D -200>	(40,48)	(41,19)	(5,62)	(198,12)	(9,4)	(6,1)	(199,2)	(0,26)	(1,8)	(4,19)	(18,1)	(318,1)	(-2,5)	(-34,1)	(297,1)	(402,1)	
L1D -199>	(-20,0)	(5,116)	(-8,0)	(41,80)	(197,0)	(40,0)	(52,0)	(1,60)	(-26,0)	(9,3)	(0,1)	(452,0)	(1,0)	(1,0)	(1,0)	(1,0)	
L1D -198>	(-35,0)	(0,2)	(4,1)	(40,88)	(-40,0)	(-202,0)	(202,1)	(188,0)	(-44,8)	(41,2)	(5,0)	(-9,65)	(196,0)	(-86,0)	(1,1)	(1,0)	
L1D -197>	(0,27)	(198,3)	(4,4)	(9,7)	(-61,11)	(3,16)	(-16,12)	(195,4)	(-10,59)	(6,3)	(192,3)	(124,1)	(199,5)	(-83,2)	(226,2)	(-50,2)	
L1D -196>	(1,4)	(196,42)	(0,25)	(-18,7)	(-14,3)	(4,1)	(225,2)	(-20,4)	(424,1)	(7,2)	(-50,1)	(5,2)	(-16,1)	(195,1)	(17,1)	(194,4)	
L1D -195>	(386,1)	(-27,112)	(87,15)	(141,41)	(60,33)	(168,21)	(33,28)	(114,23)	(6,35)	(0,5)	(193,1)	(41,2)	(195,4)	(222,1)	(276,1)	(9,1)	
L1D -194>	(192,0)	(0,3)	(194,1)	(-6,0)	(245,0)	(41,93)	(1,2)	(5,36)	(9,31)	(40,2)	(-8,0)	(1,0)	(1,0)	(1,0)	(1,0)	(1,0)	
L1D -193>	(-44,0)	(0,1)	(258,0)	(13,116)	(76,0)	(-5,0)	(234,0)	(-9,0)	(165,0)	(44,8)	(199,7)	(198,2)	(1,0)	(1,0)	(1,0)	(1,0)	
L1D -192>	(0,22)	(9,7)	(193,5)	(1,3)	(140,1)	(-10,1)	(7,4)	(229,1)	(-4,2)	(-11,1)	(20,76)	(117,1)	(190,4)	(197,27)	(12,1)	(50,1)	
L1D -191>	(9,13)	(20,37)	(220,2)	(0,14)	(152,1)	(172,1)	(6,2)	(193,3)	(1,4)	(-20,4)	(29,1)	(2,4)	(191,2)	(189,4)	(5,1)	(4,1)	
L1D -190>	(5,106)	(8,13)	(1,9)	(-8,3)	(190,3)	(146,1)	(0,12)	(181,2)	(44,2)	(-36,1)	(188,7)	(32,1)	(102,7)	(114,1)	(91,1)	(101,1)	
L1D -189>	(6,2)	(81,1)	(1,3)	(-60,0)	(0,0)	(54,0)	(212,0)	(-9,111)	(102,0)	(162,0)	(33,0)	(108,0)	(-27,0)	(13,8)	(45,0)	(4,0)	
L1D -188>	(0,13)	(186,4)	(33,2)	(-6,2)	(195,1)	(368,1)	(193,1)	(134,1)	(-18,1)	(28,1)	(-168,1)	(211,4)	(5,54)	(1,7)	(-190,1)	(2,1)	
L1D -187>	(13,66)	(187,1)	(2,0)	(9,0)	(0,0)	(-20,0)	(1,0)	(1,0)	(1,0)	(1,0)	(1,0)	(1,0)	(1,0)	(1,0)	(1,0)	(1,0)	
L1D -186>	(-60,1)	(1,3)	(-1,1)	(190,11)	(24,4)	(464,1)	(0,14)	(-169,1)	(232,2)	(360,1)	(6,3)	(4,2)	(184,4)	(32,3)	(176,1)	(-6,2)	
L1D -185>	(104,57)	(0,20)	(1,5)	(9,17)	(-1,1)	(34,2)	(33,2)	(29,2)	(180,1)	(90,27)	(45,7)	(-4,1)	(165,1)	(5,1)	(183,4)	(1,0)	
L1D -184>	(40,3)	(7,3)	(90,19)	(135,13)	(0,23)	(1,11)	(26,2)	(193,14)	(162,14)	(45,6)	(182,4)	(184,1)	(102,1)	(24,1)	(104,31)	(2,1)	
L1D -183>	(9,11)	(0,28)	(6,6)	(2,51)	(181,4)	(20,1)	(7,1)	(88,1)	(13,1)	(1,3)	(94,68)	(104,49)	(-9,7)	(33,2)	(-7,1)	(382,1)	
L1D -182>	(9,5)	(94,68)	(-26,2)	(1,6)	(0,14)	(-9,11)	(-86,1)	(4,3)	(88,3)	(358,1)	(10,1)	(406,1)	(163,1)	(44,1)	(2,1)	(180,4)	
L1D -181>	(1,10)	(5,3)	(0,21)	(27,1)	(142,1)	(104,27)	(88,2)	(-192,1)	(183,2)	(23,1)	(6,1)	(179,4)	(-1,1)	(-114,1)	(2,1)	(-5,1)	
L1D -180>	(0,1)	(-1,0)	(-9,63)	(5,0)	(34,2)	(13,97)	(50,2)	(33,0)	(26,0)	(38,0)	(1,3)	(1,0)	(1,0)	(1,0)	(1,0)	(1,0)	
L1D -179>	(-1,101)	(179,0)	(177,0)	(0,0)	(34,0)	(1,1)	(1,0)	(1,0)	(1,0)	(1,0)	(1,0)	(1,0)	(1,0)	(1,0)	(1,0)	(1,0)	
L1D -178>	(1,102)	(0,5)	(88,12)	(98,1)	(2,0)	(186,0)	(9,0)	(176,0)	(1,0)	(1,0)	(1,0)	(1,0)	(1,0)	(1,0)	(1,0)	(1,0)	
L1D -177>	(286,17)	(276,70)	(1,76)	(0,32)	(-1,1)	(177,0)	(-89,0)	(88,47)	(192,0)	(171,0)	(3,0)	(1,0)	(1,0)	(1,0)	(1,0)	(1,0)	
L1D -176>	(0,114)	(264,5)	(138,0)	(88,71)	(177,0)	(-1,2)	(3,0)	(-18,0)	(9,0)	(1,1)	(1,0)	(1,0)	(1,0)	(1,0)	(1,0)	(1,0)	
L1D -175>	(0,38)	(1,2)	(173,0)	(9,68)	(177,1)	(88,61)	(-168,5)	(170,21)	(87,1)	(-1,0)	(3,0)	(6,3)	(171,0)	(-53,0)	(179,0)	(5,0)	
L1D -174>	(50,11)	(1,4)	(28,13)	(168,73)	(0,23)	(9,0)	(418,0)	(13,3)	(172,0)	(-3,55)	(20,4)	(-5,15)	(6,0)	(87,7)	(4,4)	(343,0)	
L1D -173>	(9,1)	(-1,49)	(28,110)	(246,0)	(0,1)	(86,6)	(171,0)	(6,1)	(174,0)	(33,0)	(342,0)	(1,1)	(1,0)	(1,0)	(1,0)	(1,0)	
L1D -172>	(2,0)	(-42,0)	(5,0)	(9,21)	(170,0)	(-18,0)	(68,0)	(0,2)	(167,9)	(50,0)	(117,0)	(-11,90)	(172,1)	(178,0)	(1,0)	(1,0)	
L1D -171>	(171,64)	(177,25)	(172,2)	(4,20)	(167,2)	(5,0)	(-9,90)	(90,28)	(1,4)	(173,0)	(0,0)	(169,0)	(9,2)	(118,2)	(-4,11)	(3,1)	
L1D -170>	(33,127)	(170,11)	(-168,13)	(0,15)	(6,86)	(9,1)	(-4,27)	(-167,4)	(20,2)	(177,1)	(-50,1)	(4,0)	(12,0)	(1,8)	(-10,0)	(168,24)	
L1D -169>	(27,1)	(39,0)	(169,0)	(1,3)	(0,2)	(168,109)	(177,1)	(-170,0)	(13,0)	(3,0)	(6,0)	(210,0)	(35,0)	(-13,0)	(167,0)	(-1,0)	
L1D -168>	(9,20)	(222,0)	(87,12)	(1,10)	(-3,35)	(-6,1)	(0,0)	(338,1)	(6,49)	(343,27)	(-27,66)	(114,12)	(141,17)	(33,14)	(-11,2)	(60,9)	
L1D -167>	(-6,0)	(1,0)	(-9,0)	(0,0)	(168,0)	(40,0)	(86,8)	(167,0)	(5,43)	(9,7)	(173,0)	(125,0)	(20,0)	(41,88)	(165,0)	(3,0)	
L1D -166>	(0,8)	(1,27)	(206,9)	(167,23)	(38,8)	(9,2)	(2,3)	(-9,17)	(-4,100)	(168,9)	(49,1)	(4,1)	(280,1)	(158,5)	(164,1)	(5,15)	
L1D -165>	(0,3)	(41,2)	(32,22)	(158,97)	(-90,1)	(9,23)	(166,1)	(4,4)	(154,4)	(-8,5)	(163,1)	(159,29)	(8,2)	(160,5)	(206,20)	(1,5)	
L1D -164>	(9,3)	(-6,17)	(5,96)	(2,1)	(169,42)	(165,2)	(41,2)	(162,1)	(196,0)	(1,2)	(164,1)	(-4,1)	(57,0)	(154,11)	(0,6)	(-3,16)	
L1D -163>	(-3,7)	(40,96)	(9,56)	(162,1)	(152,0)	(27,0)	(-135,0)	(41,0)	(-4,0)	(161,0)	(0,0)	(4,1)	(7,0)	(6,0)	(1,0)	(1,0)	
L1D -162>	(41,0)	(4,68)	(9,62)	(27,0)	(-4,10)	(135,0)	(54,0)	(-33,16)	(40,12)	(108,0)	(152,1)	(-195,0)	(189,0)	(5,26)	(243,0)	(81,0)	
L1D -161>	(162,0)	(49,1)	(9,2)	(-14,0)	(20,1)	(5,30)	(161,0)	(206,0)	(44,118)	(1,0)	(201,0)	(202,0)	(170,0)	(84,4)	(-5,0)	(-8,0)	
L1D -160>	(12,12)	(5,43)	(0,22)	(1,34)	(158,13)	(-5,2)	(2,40)	(156,10)	(-11,13)	(26,2)	(161,5)	(392,1)	(157,3)	(3,4)	(-242,3)	(119,1)	
L1D -159>	(410,1)	(5,5)	(-99,31)	(156,1)	(41,111)	(-98,2)	(-3,3)	(157,0)	(9,10)	(154,0)	(126,0)	(1,0)	(1,0)	(1,0)	(1,0)	(1,0)	
L1D -158>	(-39,30)	(81,1)	(5,19)	(4,2)	(40,49)	(198,0)	(96,0)	(0,0)	(-8,0)	(-46,1)	(41,100)	(9,1)	(45,0)	(1,0)	(-3,28)	(-9,0)	
L1D -157>	(7,1)	(0,12)	(1,8)	(-1,5)	(198,6)	(156,102)	(-14,41)	(4,16)	(157,12)	(155,4)	(3,56)	(2,5)	(-121,16)	(-9,16)	(5,15)	(13,8)	
L1D -156>	(-14,124)	(0,14)	(7,9)	(-13,2)	(156,2)	(117,3)	(-10,7)	(157,5)	(9,11)	(-18,1)	(371,1)	(1,2)	(6,1)	(159,1)	(154,4)	(158,27)	
L1D -155>	(157,2)	(156,10)	(154,78)	(-14,7)	(12,0)	(155,0)	(1,0)	(0,0)	(2,0)	(153,0)	(219,0)	(1,0)	(1,0)	(1,0)	(1,0)	(1,0)	
L1D -154>	(-14,50)	(156,13)	(158,1)	(-1,0)	(-25,4)	(41,65)	(9,9)	(5,20)	(154,0)	(81,0)	(0,0)	(-134,0)	(1,0)	(1,0)	(1,0)	(1,0)	
L1D -153>	(154,74)	(9,26)	(-89,1)	(1,5)	(0,8)	(156,75)	(157,24)	(12,8)	(158,24)	(-14,12)	(-5,2)	(40,4)	(151,2)	(153,4)	(4,2)	(155,3)	
L1D -152>	(142,3)	(0,8)	(153,2)	(6,0)	(152,1)	(12,1)	(-8,5)	(150,1)	(7,1)	(172,0)	(44,6)	(140,87)	(193,0)	(1,2)	(32,19)	(141,8)	
L1D -151>	(0,14)	(1,7)	(151,5)	(5,1)	(4,2)	(-126,1)	(88,1)	(152,2)	(17,1)	(149,4)	(-13,1)	(-5,1)	(284,1)	(29,1)	(1,0)	(1,0)	
L1D -150>	(0,10)	(229,1)	(149,1)	(1,9)	(-304,1)	(151,4)	(-84,1)	(91,1)	(-40,1)	(83,1)	(148,5)	(150,3)	(-2,2)	(126,1)	(-3,1)	(-104,1)	
L1D -149>	(0,16)	(1,6)	(3,67)	(150,3)	(9,47)	(147,4)	(149,5)	(6,2)	(41,12)	(13,5)	(159,11)	(27,3)	(-44,23)	(4,1)	(5,5)	(127,2)	
L1D -148>	(144,3)	(1,13)	(0,9)	(3,16)	(-1,2)	(-10,5)	(6,7)	(45,7)	(146,4)	(50,2)	(149,26)	(81,1)	(38,1)	(140,11)	(150,6)	(151,1)	
L1D -147>	(141,66)	(29,1)	(1,1)	(41,0)	(5,46)	(-33,16)	(145,1)	(0,2)	(148,0)	(17,1)	(140,1)	(-22,0)	(147,0)	(-6,0)	(2,0)	(6,1)	
L1D -146>	(0,80)	(146,0)	(9,14)	(2,6)	(-14,0)	(-33,3)	(147,0)	(-8,0)	(1,0)	(1,0)	(1,0)	(1,0)	(1,0)	(1,0)	(1,0)	(1,0)	
L1D -145>	(2,2)	(12,48)	(5,27)	(1,9)	(143,4)	(145,7)	(147,6)	(-14,20)	(146,5)	(-22,1)	(332,1)	(0,9)	(47,1)	(9,2)	(-2,2)	(7,2)	
L1D -144>	(130,106)	(7,15)	(144,0)	(12,0)	(0,8)	(-26,4)	(145,0)	(139,0)	(9,0)	(-7,0)	(94,0)	(90,0)	(40,0)	(135,0)	(-50,0)	(1,0)	
L1D -143>	(6,99)	(0,73)	(5,0)	(129,11)	(143,0)	(3,14)	(141,0)	(144,0)	(1,0)	(1,0)	(1,0)	(1,0)	(1,0)	(1,0)	(1,0)	(1,0)	
L1D -142>	(5,9)	(0,14)	(122,3)	(142,11)	(19,15)	(6,9)	(140,3)	(-1,4)	(1,9)	(-11,6)	(71,1)	(372,1)	(3,6)	(2,3)	(150,1)	(144,3)	
L1D -141>	(23,0)	(35,0)	(142,1)	(5,0)	(114,38)	(60,13)	(87,19)	(-27,81)	(6,19)	(168,4)	(33,15)	(128,0)	(-8,0)	(141,0)	(139,0)	(2,0)	
L1D -140>	(0,18)	(138,4)	(41,4)	(1,8)	(140,11)	(9,52)	(141,6)	(-3,2)	(186,1)	(-136,1)	(160,1)	(-33,5)	(328,1)	(126,1)	(117,1)	(90,8)	
L1D -139>	(117,2)	(0,8)	(90,19)	(1,5)	(137,4)	(139,2)	(3,8)	(-2,1)	(-34,1)	(138,31)	(140,1)	(5,2)	(19,5)	(378,1)	(-14,20)	(111,1)	
L1D -138>	(-1,1)	(1,6)	(9,15)	(165,1)	(138,18)	(136,5)	(0,12)	(88,2)	(20,1)	(2,1)	(110,1)	(-14,65)	(5,2)	(137,1)	(-59,1)	(68,1)	
L1D -137>	(0,7)	(136,45)	(139,3)	(-14,9)	(-7,125)	(200,1)	(9,0)	(-138,0)	(137,0)	(5,0)	(138,5)	(125,0)	(184,0)	(-33,12)	(4,0)	(1,0)	
L1D -136>	(0,21)	(136,1)	(2,0)	(374,0)	(124,0)	(137,0)	(134,0)	(190,0)	(-14,114)	(138,36)	(-9,0)	(1,0)	(1,0)	(1,0)	(1,0)	(1,0)	
L1D -135>	(480,1)	(27,4)	(-8,112)	(1,2)	(-33,21)	(6,2)	(0,3)	(138,0)	(9,0)	(-87,0)	(54,2)	(81,5)	(-27,16)	(-60,5)	(108,5)	(162,2)	
L1D -134>	(135,1)	(14,115)	(5,0)	(412,0)	(-9,0)	(134,1)	(1,0)	(-14,0)	(0,1)	(106,0)	(132,0)	(9,0)	(50,1)	(4,0)	(114,0)	(171,0)	
L1D -133>	(133,4)	(134,3)	(14,102)	(-3,8)	(1,2)	(6,64)	(-5,1)	(-40,22)	(-1,1)	(0,2)	(131,1)	(-8,10)	(-12,0)	(-50,0)	(205,0)	(2,0)	
L1D -132>	(-3,2)	(6,91)	(5,1)	(0,5)	(130,1)	(1,3)	(179,26)	(142,1)	(118,1)	(-94,0)	(132,3)	(33,2)	(133,2)	(124,0)	(128,0)	(9,0)	
L1D -131>	(6,24)	(5,9)	(1,7)	(9,91)	(4,8)	(0,17)	(-1,2)	(131,8)	(24,1)	(33,1)	(179,3)	(132,3)	(41,1)	(129,4)	(117,1)	(112,1)	
L1D -130>	(128,4)	(1,32)	(0,22)	(21,4)	(3,1)	(8,9)	(13,3)	(4,11)	(130,6)	(-8,1)	(9,14)	(336,1)	(-13,4)	(39,2)	(104,1)	(7,1)	
L1D -129>	(0,6)	(1,4)	(9,13)	(-1,4)	(129,3)	(6,2)	(165,4)	(173,2)	(130,3)	(3,5)	(-128,1)	(7,1)	(-30,1)	(127,4)	(138,1)	(-26,1)	
L1D -128>	(34,82)	(128,1)	(0,4)	(51,1)	(9,1)	(126,1)	(179,1)	(1,4)	(2,1)	(33,1)	(-2,4)	(142,0)	(129,1)	(-1,0)	(132,0)	(141,0)	
L1D -127>	(41,34)	(5,8)	(127,0)	(40,6)	(9,54)	(34,69)	(-126,0)	(0,0)	(125,0)	(136,0)	(4,0)	(-1,0)	(1,0)	(1,0)	(1,0)	(1,0)	
L1D -126>	(4,11)	(9,119)	(173,1)	(-58,0)	(126,1)	(33,1)	(2,0)	(38,4)	(5,3)	(0,2)	(6,24)	(179,10)	(1,1)	(-3,0)	(40,4)	(162,0)	
L1D -125>	(0,16)	(1,0)	(49,1)	(3,16)	(9,1)	(4,127)	(8,75)	(123,0)	(165,8)	(83,1)	(125,2)	(122,0)	(166,6)	(206,1)	(2,0)	(41,0)	
L1D -124>	(9,7)	(122,4)	(21,101)	(0,24)	(1,10)	(5,12)	(-1,6)	(183,1)	(-4,14)	(4,31)	(113,8)	(82,20)	(125,6)	(41,91)	(124,4)	(-2,11)	
L1D -123>	(123,2)	(5,3)	(4,5)	(41,75)	(122,0)	(105,44)	(1,2)	(-4,8)	(17,0)	(121,0)	(-122,0)	(0,2)	(106,0)	(141,0)	(458,0)	(124,0)	
L1D -122>	(9,46)	(5,83)	(-4,1)	(117,8)	(-3,18)	(40,22)	(122,0)	(4,8)	(-9,0)	(41,11)	(-8,0)	(112,0)	(0,0)	(-242,0)	(158,0)	(1,0)	
L1D -121>	(122,1)	(4,7)	(9,122)	(-4,94)	(-1,1)	(-9,0)	(-3,5)	(5,0)	(112,1)	(44,0)	(121,0)	(40,0)	(161,0)	(202,0)	(11,0)	(162,0)	
L1D -120>	(161,4)	(103,122)	(0,2)	(44,10)	(-190,1)	(41,72)	(121,4)	(1,69)	(38,1)	(30,2)	(120,5)	(-8,3)	(-40,10)	(9,124)	(84,3)	(-45,2)	
L1D -119>	(9,33)	(-4,0)	(1,1)	(-18,67)	(-1,0)	(-164,0)	(117,7)	(119,0)	(115,0)	(0,1)	(5,54)	(2,9)	(-8,5)	(416,0)	(120,0)	(272,0)	
L1D -118>	(61,1)	(5,6)	(41,86)	(-3,0)	(118,0)	(1,5)	(-18,8)	(0,0)	(113,0)	(119,0)	(-8,0)	(40,1)	(9,6)	(1,0)	(1,0)	(1,0)	
L1D -117>	(5,10)	(9,2)	(71,9)	(82,6)	(40,72)	(-5,9)	(1,41)	(4,2)	(-44,59)	(-207,1)	(-3,5)	(157,1)	(121,41)	(41,30)	(-39,17)	(-4,2)	
L1D -116>	(-162,3)	(9,19)	(117,6)	(4,19)	(114,4)	(-76,1)	(81,123)	(18,2)	(3,3)	(-7,97)	(1,3)	(77,72)	(-214,2)	(116,10)	(157,4)	(7,7)	
L1D -115>	(13,106)	(-5,37)	(80,40)	(69,15)	(98,16)	(1,3)	(-76,1)	(-1,1)	(65,4)	(115,4)	(0,1)	(3,2)	(112,2)	(113,1)	(53,2)	(116,2)	
L1D -114>	(-1,23)	(-30,0)	(41,0)	(-27,79)	(60,18)	(87,45)	(141,7)	(33,19)	(6,16)	(9,0)	(168,1)	(113,0)	(-7,1)	(0,0)	(97,0)	(-81,0)	
L1D -113>	(-49,0)	(67,2)	(78,2)	(278,0)	(-9,5)	(5,19)	(314,0)	(63,0)	(41,121)	(1,0)	(108,1)	(-8,0)	(113,0)	(0,0)	(20,0)	(9,16)	
L1D -112>	(86,15)	(-4,31)	(113,75)	(1,66)	(117,13)	(112,10)	(110,4)	(9,9)	(0,21)	(-9,5)	(-49,13)	(44,12)	(-1,7)	(40,1)	(5,2)	(7,3)	
L1D -111>	(0,17)	(9,76)	(93,76)	(45,41)	(2,2)	(6,9)	(111,14)	(5,2)	(98,18)	(119,1)	(100,10)	(112,2)	(390,1)	(-64,1)	(62,4)	(109,4)	
L1D -110>	(-10,13)	(-1,14)	(-4,1)	(33,20)	(32,1)	(478,1)	(1,3)	(97,2)	(120,76)	(8,6)	(0,30)	(48,2)	(99,1)	(98,2)	(78,0)	(60,0)	
L1D -109>	(99,1)	(78,0)	(424,0)	(3,0)	(4,0)	(-5,6)	(5,0)	(44,0)	(1,0)	(33,0)	(11,0)	(0,0)	(20,88)	(97,1)	(-11,0)	(-1,2)	
L1D -108>	(97,1)	(-27,20)	(-54,44)	(-60,21)	(1,11)	(-10,35)	(-2,21)	(-12,23)	(0,34)	(78,71)	(-6,5)	(81,14)	(110,44)	(54,15)	(-33,24)	(27,16)	
L1D -107>	(109,33)	(108,77)	(6,3)	(5,67)	(9,0)	(105,0)	(1,1)	(-334,0)	(-5,28)	(-3,22)	(107,14)	(31,19)	(-106,13)	(-8,3)	(0,3)	(-54,4)	
L1D -106>	(0,83)	(9,2)	(3,6)	(106,29)	(107,16)	(1,11)	(-4,31)	(5,4)	(117,12)	(24,3)	(6,3)	(52,2)	(-16,1)	(99,2)	(-43,1)	(104,4)	
L1D -105>	(106,3)	(0,16)	(-4,27)	(86,7)	(-328,71)	(-2,0)	(105,2)	(29,0)	(3,0)	(320,0)	(-1,0)	(24,0)	(1,0)	(1,0)	(1,0)	(1,0)	
L1D -104>	(-2,11)	(39,5)	(0,17)	(102,4)	(54,8)	(104,21)	(45,11)	(9,34)	(105,22)	(95,12)	(50,8)	(-1,5)	(3,4)	(-137,1)	(1,12)	(-13,3)	
L1D -103>	(2,30)	(60,121)	(3,0)	(99,0)	(15,10)	(-1,2)	(6,0)	(1,26)	(4,1)	(103,0)	(7,1)	(-50,0)	(94,0)	(54,0)	(1,0)	(1,0)	
L1D -102>	(-7,11)	(9,71)	(104,102)	(102,1)	(-6,3)	(0,95)	(-101,0)	(103,0)	(4,12)	(88,0)	(-78,0)	(15,0)	(1,0)	(1,0)	(1,0)	(1,0)	
L1D -101>	(102,0)	(-1,30)	(9,2)	(146,0)	(0,8)	(3,0)	(41,76)	(-60,0)	(189,0)	(190,59)	(1,0)	(2,35)	(98,0)	(103,1)	(-7,0)	(75,0)	
L1D -100>	(62,1)	(11,48)	(-4,120)	(100,3)	(101,1)	(98,0)	(0,1)	(3,0)	(71,0)	(1,1)	(2,0)	(22,0)	(-2,0)	(110,0)	(61,0)	(-108,0)	
L1D -99>	(-1,0)	(0,65)	(11,0)	(110,1)	(62,101)	(24,26)	(99,31)	(1,0)	(78,9)	(9,0)	(98,4)	(89,9)	(61,2)	(101,14)	(87,3)	(60,10)	
L1D -98>	(0,88)	(98,82)	(-1,18)	(60,110)	(1,0)	(78,91)	(29,6)	(28,10)	(97,12)	(99,7)	(-58,16)	(109,0)	(24,1)	(-12,0)	(108,16)	(111,1)	
L1D -97>	(-96,0)	(-163,0)	(98,26)	(8,2)	(0,0)	(13,1)	(41,96)	(2,97)	(97,5)	(20,0)	(96,0)	(99,0)	(87,0)	(-7,14)	(29,8)	(-3,1)	
L1D -96>	(0,14)	(-9,15)	(95,1)	(-8,7)	(-1,0)	(-4,71)	(97,0)	(1,0)	(11,0)	(15,0)	(107,4)	(96,1)	(94,0)	(-58,11)	(8,1)	(98,0)	
L1D -95>	(99,71)	(-13,1)	(11,5)	(2,30)	(1,14)	(0,1)	(4,1)	(93,0)	(9,0)	(96,0)	(45,0)	(90,0)	(6,0)	(95,0)	(41,0)	(5,0)	
L1D -94>	(-14,1)	(100,1)	(2,1)	(135,0)	(0,1)	(139,0)	(-95,0)	(-4,113)	(4,4)	(1,2)	(3,2)	(45,0)	(11,2)	(-50,0)	(90,0)	(94,1)	
L1D -93>	(9,60)	(-2,27)	(8,2)	(2,42)	(-1,22)	(-8,44)	(146,0)	(1,1)	(45,68)	(0,33)	(95,0)	(-9,3)	(24,0)	(107,2)	(-3,0)	(93,0)	
L1D -92>	(9,58)	(97,8)	(-4,2)	(-8,9)	(-145,1)	(-9,40)	(107,6)	(93,5)	(1,51)	(95,82)	(26,1)	(90,1)	(0,4)	(88,0)	(13,7)	(-137,0)	
L1D -91>	(2,0)	(96,69)	(93,19)	(6,0)	(15,11)	(0,1)	(175,2)	(1,17)	(78,0)	(91,0)	(8,6)	(-7,2)	(26,0)	(117,0)	(-13,1)	(-3,0)	
L1D -90>	(1,9)	(-4,14)	(96,1)	(9,0)	(-34,27)	(4,0)	(90,34)	(91,27)	(15,8)	(14,0)	(-8,118)	(7,4)	(-35,0)	(-1,34)	(88,0)	(-39,0)	
L1D -89>	(-137,0)	(1,6)	(0,16)	(4,1)	(97,0)	(-1,0)	(91,3)	(6,17)	(-34,10)	(103,0)	(89,0)	(148,0)	(13,0)	(88,72)	(84,0)	(98,1)	
L1D -88>	(0,70)	(176,1)	(-11,0)	(-1,2)	(2,0)	(26,0)	(1,13)	(88,47)	(94,1)	(6,1)	(-8,7)	(90,1)	(-9,31)	(5,0)	(79,0)	(1,0)	
L1D -87>	(0,22)	(1,16)	(98,21)	(6,36)	(87,32)	(-86,1)	(114,3)	(89,4)	(26,0)	(141,1)	(88,9)	(60,76)	(33,32)	(-27,123)	(168,1)	(9,0)	
L1D -86>	(41,48)	(4,0)	(-1,0)	(86,1)	(-5,0)	(13,0)	(0,0)	(88,6)	(9,74)	(164,0)	(87,0)	(-4,6)	(40,25)	(3,0)	(1,0)	(5,0)	
L1D -85>	(107,5)	(4,46)	(38,1)	(-23,123)	(39,1)	(9,36)	(-13,3)	(-8,37)	(5,1)	(87,2)	(1,3)	(82,3)	(-2,6)	(0,1)	(125,1)	(86,1)	
L1D -84>	(-14,64)	(87,11)	(13,3)	(44,0)	(109,40)	(85,3)	(1,0)	(206,0)	(165,9)	(5,12)	(9,0)	(84,21)	(125,46)	(0,0)	(-9,10)	(-8,0)	
L1D -83>	(-248,1)	(3,1)	(64,0)	(41,2)	(-9,112)	(1,0)	(9,7)	(161,0)	(124,0)	(85,3)	(0,1)	(93,0)	(-1,0)	(-5,24)	(108,10)	(83,0)	
L1D -82>	(-3,117)	(5,4)	(82,0)	(-107,2)	(2,0)	(117,10)	(-102,13)	(83,0)	(-8,1)	(81,1)	(-115,2)	(9,40)	(-5,0)	(41,0)	(1,2)	(4,0)	
L1D -81>	(135,1)	(-54,8)	(-4,4)	(4,57)	(9,122)	(-27,30)	(-60,20)	(5,6)	(-33,28)	(-87,6)	(116,7)	(27,25)	(-81,2)	(-7,5)	(54,14)	(108,4)	
L1D -80>	(9,55)	(0,25)	(115,109)	(69,3)	(-58,33)	(1,2)	(84,60)	(18,3)	(5,2)	(-223,1)	(2,2)	(4,12)	(120,0)	(81,3)	(44,7)	(-94,0)	
L1D -79>	(83,115)	(75,1)	(5,1)	(-1,1)	(-2,18)	(-13,8)	(78,1)	(132,1)	(1,1)	(2,1)	(-12,1)	(14,0)	(99,0)	(77,3)	(65,0)	(26,2)	
L1D -78>	(60,48)	(0,36)	(-36,16)	(-1,30)	(89,2)	(2,19)	(-3,52)	(87,4)	(1,97)	(80,6)	(-8,2)	(98,6)	(83,1)	(99,4)	(-58,8)	(113,5)	
L1D -77>	(-2,1)	(5,1)	(-37,5)	(14,9)	(65,1)	(2,10)	(-4,85)	(41,11)	(-39,2)	(1,48)	(81,13)	(-9,12)	(-201,1)	(77,13)	(40,72)	(0,1)	
L1D -76>	(117,19)	(2,8)	(76,58)	(0,59)	(1,17)	(75,67)	(40,2)	(-5,18)	(116,5)	(5,7)	(82,2)	(52,1)	(-9,4)	(-44,3)	(37,3)	(-36,47)	
L1D -75>	(44,4)	(9,11)	(0,93)	(1,108)	(18,15)	(76,117)	(75,64)	(32,12)	(-6,9)	(132,1)	(-39,6)	(-108,1)	(128,1)	(-37,1)	(84,37)	(77,2)	
L1D -74>	(68,0)	(-3,20)	(3,1)	(17,7)	(-2,75)	(76,0)	(11,0)	(-1,0)	(4,0)	(483,0)	(-18,39)	(1,37)	(-7,2)	(2,0)	(73,1)	(74,3)	
L1D -73>	(15,14)	(1,52)	(20,6)	(75,10)	(41,10)	(73,10)	(0,3)	(74,3)	(-108,2)	(-2,116)	(9,52)	(5,4)	(14,37)	(130,1)	(392,1)	(-1,37)	
L1D -72>	(76,7)	(-1,77)	(3,1)	(0,1)	(15,12)	(14,1)	(1,2)	(112,1)	(-4,5)	(9,4)	(18,0)	(-5,17)	(73,0)	(-223,0)	(77,2)	(72,2)	
L1D -71>	(-3,107)	(76,1)	(424,0)	(-10,6)	(1,103)	(65,39)	(-5,17)	(20,0)	(-4,4)	(71,0)	(-1,6)	(-6,6)	(-215,0)	(128,0)	(1,0)	(1,0)	
L1D -70>	(-1,5)	(1,120)	(30,113)	(-85,25)	(11,1)	(-4,1)	(70,9)	(0,3)	(72,0)	(-11,0)	(-2,6)	(5,1)	(-3,48)	(-7,91)	(4,5)	(71,1)	
L1D -69>	(22,68)	(207,1)	(1,0)	(-87,0)	(-86,0)	(0,0)	(-85,16)	(69,3)	(-1,105)	(67,5)	(73,17)	(4,0)	(34,0)	(5,1)	(70,0)	(68,0)	
L1D -68>	(-108,0)	(72,77)	(69,6)	(-2,13)	(41,1)	(-3,15)	(-4,3)	(9,0)	(22,0)	(201,0)	(5,0)	(101,0)	(-1,2)	(66,0)	(1,1)	(68,0)	
L1D -67>	(2,29)	(-3,70)	(1,18)	(72,0)	(-108,0)	(-1,79)	(-8,18)	(-6,16)	(69,16)	(3,1)	(-10,0)	(67,3)	(61,2)	(203,0)	(-2,1)	(1,0)	
L1D -66>	(-5,0)	(-12,5)	(14,0)	(39,1)	(1,2)	(52,4)	(-13,3)	(-7,90)	(53,2)	(-6,2)	(9,0)	(-45,12)	(26,1)	(-4,1)	(65,2)	(13,1)	
L1D -65>	(9,39)	(1,24)	(65,22)	(59,25)	(2,5)	(6,12)	(3,10)	(0,12)	(-27,1)	(-1,64)	(26,19)	(52,14)	(61,3)	(53,34)	(-13,73)	(51,3)	
L1D -64>	(-3,7)	(0,87)	(-4,31)	(-6,15)	(11,2)	(69,8)	(-1,2)	(-5,8)	(76,1)	(51,1)	(-2,6)	(192,1)	(65,11)	(64,8)	(62,1)	(4,19)	
L1D -63>	(0,19)	(21,8)	(-1,7)	(63,13)	(100,1)	(9,75)	(54,2)	(64,2)	(1,59)	(4,18)	(22,6)	(2,8)	(17,6)	(62,1)	(156,1)	(20,3)	
L1D -62>	(2,106)	(-137,1)	(51,44)	(-6,7)	(-2,58)	(1,0)	(-1,46)	(-3,1)	(0,3)	(52,7)	(56,11)	(366,0)	(63,0)	(65,0)	(62,0)	(58,3)	
L1D -61>	(3,75)	(1,95)	(-189,1)	(136,0)	(257,0)	(99,3)	(-1,0)	(0,0)	(61,2)	(62,0)	(36,0)	(100,0)	(79,0)	(1,0)	(1,0)	(1,0)	
L1D -60>	(60,1)	(0,0)	(-3,0)	(168,0)	(99,0)	(-4,0)	(87,1)	(141,0)	(2,0)	(-27,22)	(33,92)	(114,2)	(6,2)	(-2,0)	(61,0)	(-5,1)	
L1D -59>	(63,37)	(0,13)	(1,29)	(-8,3)	(-3,1)	(59,11)	(9,83)	(-1,39)	(57,2)	(-11,1)	(60,3)	(5,1)	(20,4)	(50,2)	(116,1)	(-108,2)	
L1D -58>	(56,1)	(2,107)	(1,58)	(-5,0)	(58,0)	(-14,37)	(-2,76)	(6,0)	(-15,0)	(8,0)	(-4,1)	(0,4)	(4,0)	(48,0)	(15,0)	(1,0)	
L1D -57>	(-350,1)	(21,0)	(-10,7)	(57,70)	(62,3)	(-1,48)	(58,8)	(0,86)	(9,5)	(19,0)	(1,1)	(53,0)	(51,0)	(-2,2)	(61,36)	(3,0)	
L1D -56>	(-1,49)	(45,3)	(-2,105)	(3,1)	(16,0)	(365,0)	(56,0)	(203,1)	(41,0)	(325,0)	(-4,2)	(6,1)	(1,0)	(0,0)	(55,1)	(58,0)	
L1D -55>	(0,0)	(-2,69)	(55,0)	(45,0)	(-1,3)	(63,0)	(3,0)	(66,0)	(1,0)	(69,0)	(70,0)	(54,0)	(7,0)	(24,0)	(57,0)	(56,0)	
L1D -54>	(1,7)	(27,69)	(-27,87)	(-54,19)	(-1,45)	(14,4)	(135,7)	(-52,1)	(-81,4)	(56,50)	(81,14)	(-114,11)	(-33,68)	(-60,21)	(108,11)	(-87,12)	
L1D -53>	(1,5)	(161,1)	(14,1)	(53,11)	(64,79)	(52,3)	(4,13)	(78,1)	(54,9)	(26,1)	(358,35)	(-13,4)	(-26,1)	(-12,16)	(40,3)	(17,3)	
L1D -52>	(53,3)	(29,100)	(-27,1)	(40,3)	(52,7)	(0,6)	(24,3)	(13,2)	(-1,15)	(-14,5)	(-13,15)	(1,106)	(78,1)	(65,3)	(26,3)	(39,1)	
L1D -51>	(1,3)	(155,1)	(49,2)	(6,16)	(56,4)	(-20,6)	(0,4)	(5,11)	(39,3)	(51,22)	(-2,89)	(-4,4)	(4,6)	(52,13)	(-1,5)	(26,3)	
L1D -50>	(2,82)	(60,1)	(1,68)	(0,1)	(3,13)	(50,1)	(4,8)	(-3,10)	(-2,1)	(14,19)	(-5,6)	(-4,1)	(-1,1)	(324,0)	(9,0)	(51,0)	
L1D -49>	(4,4)	(0,36)	(18,1)	(2,1)	(-5,76)	(-2,10)	(50,1)	(53,8)	(-6,1)	(-1,19)	(44,2)	(-4,2)	(3,1)	(56,3)	(9,2)	(-9,8)	
L1D -48>	(-9,90)	(18,0)	(49,0)	(-10,1)	(212,0)	(-1,22)	(3,0)	(52,1)	(0,1)	(50,0)	(48,0)	(-24,0)	(17,0)	(20,0)	(2,1)	(89,0)	
L1D -47>	(0,117)	(-108,5)	(2,10)	(9,0)	(47,23)	(3,2)	(-2,2)	(48,1)	(7,4)	(49,107)	(53,1)	(1,0)	(1,0)	(1,0)	(1,0)	(1,0)	
L1D -46>	(-8,2)	(41,18)	(-3,71)	(-5,1)	(-7,0)	(9,0)	(1,20)	(93,1)	(44,4)	(-4,2)	(40,0)	(48,6)	(-1,9)	(45,4)	(56,0)	(-2,0)	
L1D -45>	(72,1)	(43,26)	(5,12)	(45,122)	(4,10)	(9,44)	(-5,88)	(93,21)	(3,1)	(-9,62)	(63,9)	(-2,26)	(-11,0)	(-4,51)	(1,6)	(-1,5)	
L1D -44>	(84,88)	(79,5)	(48,3)	(45,4)	(9,2)	(8,1)	(46,38)	(42,10)	(-1,17)	(43,1)	(85,5)	(-3,8)	(3,6)	(-13,1)	(44,10)	(5,3)	
L1D -43>	(12,1)	(5,0)	(-2,31)	(47,89)	(45,20)	(70,0)	(-7,5)	(-4,4)	(-3,4)	(43,8)	(-10,0)	(-12,1)	(-13,0)	(-11,2)	(1,8)	(2,0)	
L1D -42>	(-3,19)	(2,91)	(80,1)	(42,39)	(43,0)	(-9,1)	(6,5)	(1,16)	(36,0)	(-8,8)	(-1,15)	(33,3)	(-4,2)	(44,6)	(0,0)	(-5,2)	
L1D -41>	(-3,32)	(-2,8)	(-4,36)	(5,48)	(2,2)	(14,1)	(43,53)	(0,3)	(-1,2)	(-9,126)	(81,4)	(1,3)	(9,47)	(45,1)	(40,5)	(41,4)	
L1D -40>	(4,98)	(-16,15)	(5,1)	(26,5)	(81,7)	(45,1)	(9,22)	(-4,3)	(-7,1)	(40,16)	(-12,8)	(13,1)	(148,0)	(39,17)	(-13,6)	(27,5)	
L1D -39>	(27,2)	(0,2)	(1,19)	(26,1)	(40,1)	(-1,7)	(39,6)	(-26,2)	(65,1)	(13,1)	(50,5)	(-13,20)	(-14,2)	(52,1)	(44,65)	(84,15)	
L1D -38>	(-2,0)	(44,8)	(26,1)	(-3,11)	(0,1)	(11,18)	(4,38)	(36,68)	(38,16)	(2,1)	(32,53)	(-1,2)	(9,2)	(5,0)	(-60,4)	(-5,57)	
L1D -37>	(6,1)	(9,11)	(70,0)	(1,3)	(196,1)	(-1,6)	(38,0)	(40,2)	(2,15)	(-2,7)	(34,0)	(5,121)	(32,0)	(0,7)	(14,5)	(-3,2)	
L1D -36>	(-9,1)	(13,11)	(25,70)	(-1,86)	(9,5)	(-3,16)	(36,15)	(5,17)	(-41,3)	(2,77)	(-117,2)	(44,14)	(38,21)	(4,5)	(40,23)	(-4,25)	
L1D -35>	(-3,77)	(1,9)	(2,0)	(0,1)	(6,0)	(9,0)	(-82,2)	(35,6)	(-169,0)	(8,0)	(-5,0)	(-81,2)	(-4,0)	(-1,52)	(29,1)	(-80,2)	
L1D -34>	(0,88)	(5,1)	(2,6)	(-14,1)	(34,38)	(-11,10)	(30,0)	(1,64)	(4,12)	(-4,16)	(32,9)	(-7,13)	(-5,0)	(-6,0)	(-3,7)	(11,8)	
L1D -33>	(6,38)	(-27,113)	(-62,1)	(37,38)	(-248,0)	(168,1)	(60,0)	(33,0)	(-3,0)	(-1,0)	(1,9)	(2,0)	(0,0)	(180,0)	(114,1)	(50,0)	
L1D -32>	(-1,47)	(28,1)	(36,42)	(-3,59)	(-4,2)	(-14,12)	(-2,52)	(40,3)	(9,1)	(295,1)	(30,6)	(5,84)	(26,0)	(41,7)	(102,1)	(0,3)	
L1D -31>	(-3,90)	(29,1)	(9,3)	(40,1)	(-5,25)	(2,3)	(-239,2)	(-4,1)	(4,5)	(-6,1)	(-54,0)	(-31,0)	(-1,1)	(-14,2)	(5,4)	(-8,2)	
L1D -30>	(-6,9)	(-23,1)	(-5,15)	(4,1)	(0,1)	(3,4)	(6,2)	(-251,1)	(248,1)	(-4,115)	(2,11)	(268,1)	(30,1)	(-94,0)	(1,0)	(-7,5)	
L1D -29>	(9,26)	(0,4)	(1,41)	(26,114)	(-9,25)	(-241,4)	(6,35)	(30,8)	(2,4)	(29,13)	(-1,40)	(-331,5)	(43,82)	(7,4)	(34,1)	(21,3)	
L1D -28>	(-4,20)	(0,77)	(2,57)	(-319,62)	(1,36)	(56,4)	(-14,17)	(28,5)	(32,7)	(-320,101)	(-3,1)	(25,6)	(10,27)	(256,2)	(36,4)	(-13,6)	
L1D -27>	(81,3)	(1,1)	(6,1)	(87,7)	(114,5)	(168,5)	(-114,1)	(0,1)	(-87,2)	(60,8)	(141,1)	(-60,5)	(33,46)	(-33,38)	(-54,3)	(-27,106)	
L1D -26>	(19,1)	(33,14)	(20,5)	(25,7)	(0,28)	(35,4)	(-10,15)	(-2,29)	(-6,7)	(5,63)	(-5,65)	(40,19)	(-13,17)	(1,78)	(-1,41)	(27,6)	
L1D -25>	(6,1)	(1,97)	(-54,1)	(-10,101)	(41,28)	(0,11)	(21,1)	(-13,1)	(-57,2)	(-1,17)	(4,3)	(18,1)	(-14,0)	(26,4)	(25,1)	(19,0)	
L1D -24>	(38,1)	(1,8)	(-4,77)	(3,90)	(7,33)	(26,1)	(-7,1)	(25,1)	(12,9)	(-2,2)	(0,9)	(2,6)	(-8,5)	(22,0)	(-3,3)	(41,0)	
L1D -23>	(1,56)	(50,2)	(2,41)	(27,12)	(22,50)	(0,97)	(-7,39)	(9,13)	(3,17)	(-54,1)	(-11,7)	(23,13)	(118,114)	(-10,9)	(36,13)	(-12,10)	
L1D -22>	(4,40)	(40,10)	(-239,3)	(20,12)	(5,30)	(-9,118)	(36,10)	(0,5)	(1,10)	(-6,1)	(9,2)	(2,10)	(-2,5)	(6,1)	(-37,7)	(-1,2)	
L1D -21>	(27,1)	(0,9)	(-7,1)	(-4,3)	(-6,2)	(10,0)	(-1,80)	(110,4)	(4,0)	(-78,13)	(2,3)	(17,1)	(16,43)	(21,11)	(1,34)	(-10,52)	
L1D -20>	(0,45)	(-1,70)	(1,28)	(239,1)	(23,13)	(3,6)	(2,1)	(6,14)	(26,18)	(-6,16)	(20,26)	(13,23)	(24,6)	(-3,10)	(19,32)	(-4,3)	
L1D -19>	(-13,1)	(9,23)	(-2,118)	(21,2)	(-9,45)	(55,1)	(-1,50)	(2,3)	(11,1)	(19,8)	(1,13)	(-7,24)	(0,4)	(4,25)	(5,1)	(8,49)	
L1D -18>	(4,2)	(15,28)	(22,4)	(5,15)	(1,54)	(-6,4)	(9,33)	(-5,13)	(19,8)	(-3,40)	(2,76)	(-35,2)	(-1,21)	(17,108)	(21,8)	(39,7)	
L1D -17>	(1,64)	(16,3)	(17,1)	(0,2)	(-7,0)	(-6,2)	(4,3)	(-13,0)	(2,2)	(15,0)	(-77,1)	(-3,0)	(40,1)	(-5,62)	(5,0)	(21,0)	
L1D -16>	(39,1)	(75,0)	(63,9)	(-6,52)	(-5,74)	(20,1)	(17,2)	(7,11)	(-2,0)	(15,4)	(-1,21)	(3,10)	(-25,0)	(16,10)	(93,0)	(1,4)	
L1D -15>	(17,18)	(1,9)	(2,10)	(-2,1)	(0,118)	(15,2)	(13,1)	(-11,15)	(-8,2)	(-6,0)	(93,8)	(31,0)	(133,0)	(6,4)	(-4,10)	(3,5)	
L1D -14>	(0,103)	(13,9)	(-12,82)	(74,3)	(4,16)	(-3,20)	(2,121)	(10,18)	(-26,8)	(-13,43)	(-14,4)	(108,7)	(56,15)	(6,11)	(1,28)	(19,1)	
L1D -13>	(1,18)	(-14,8)	(14,6)	(-13,114)	(40,1)	(2,1)	(-12,36)	(165,6)	(17,15)	(-1,76)	(13,8)	(27,7)	(52,1)	(-26,4)	(-9,61)	(-5,3)	
L1D -12>	(25,1)	(3,4)	(1,4)	(13,0)	(-3,0)	(-1,86)	(2,4)	(-13,5)	(-10,3)	(-5,7)	(-14,5)	(77,0)	(-39,0)	(-78,1)	(-27,2)	(99,0)	
L1D -11>	(2,22)	(0,23)	(-9,101)	(-8,20)	(4,38)	(1,48)	(9,28)	(83,1)	(47,53)	(41,20)	(-4,29)	(26,53)	(-1,4)	(5,63)	(11,20)	(-7,15)	
L1D -10>	(57,13)	(-46,2)	(9,39)	(7,26)	(1,43)	(0,28)	(10,104)	(3,5)	(5,14)	(77,9)	(4,117)	(117,1)	(2,13)	(41,29)	(25,24)	(-2,19)	
L1D -9>	(-4,7)	(30,12)	(13,16)	(2,11)	(9,98)	(63,1)	(0,25)	(12,43)	(-3,13)	(1,31)	(4,78)	(-1,111)	(24,8)	(-2,6)	(18,30)	(61,18)	
L1D -8>	(1,69)	(-10,39)	(9,42)	(8,19)	(2,13)	(93,15)	(3,10)	(109,14)	(0,104)	(-1,113)	(-5,15)	(4,12)	(10,48)	(15,28)	(129,29)	(11,1)	
L1D -7>	(-6,9)	(0,46)	(30,87)	(2,4)	(-4,16)	(15,13)	(1,38)	(-9,1)	(7,17)	(3,13)	(-3,3)	(66,33)	(14,11)	(-5,20)	(56,35)	(-1,25)	
L1D -6>	(12,8)	(17,12)	(77,10)	(-6,10)	(10,6)	(5,67)	(9,36)	(1,66)	(6,4)	(4,12)	(0,9)	(-5,9)	(-1,16)	(41,31)	(2,1)	(-2,5)	
L1D -5>	(-2,1)	(45,1)	(-4,13)	(18,2)	(16,2)	(77,1)	(-11,3)	(4,6)	(1,7)	(-6,6)	(5,70)	(8,1)	(10,1)	(0,5)	(-1,6)	(9,1)	
L1D -4>	(82,1)	(-4,106)	(22,1)	(-6,2)	(-168,2)	(-1,1)	(-3,4)	(-171,1)	(-7,0)	(1,19)	(-18,1)	(-5,6)	(4,8)	(0,15)	(90,0)	(19,0)	
L1D -3>	(3,23)	(0,90)	(-7,30)	(4,67)	(-9,14)	(17,1)	(-5,25)	(-1,59)	(1,57)	(-2,35)	(-4,14)	(43,17)	(20,29)	(6,27)	(32,25)	(14,25)	
L1D -2>	(-3,10)	(-6,1)	(0,104)	(-9,11)	(-4,15)	(1,39)	(4,11)	(2,25)	(-2,54)	(-5,34)	(15,30)	(17,13)	(16,21)	(5,56)	(-7,14)	(6,17)	
L1D -1>	(0,6)	(6,1)	(2,4)	(13,4)	(20,2)	(5,3)	(-13,4)	(-1,4)	(8,1)	(4,9)	(-12,74)	(1,2)	(-3,6)	(7,1)	(-6,2)	(9,3)	
L1D 0>	(0,71)	(-3,1)	(-176,2)	(49,1)	(-1,1)	(-5,1)	(9,1)	(4,2)	(36,1)	(17,1)	(-7,2)	(306,1)	(88,12)	(-352,1)	(2,15)	(5,1)	
L1D 1>	(87,5)	(1,111)	(-4,2)	(8,2)	(35,2)	(-176,1)	(2,6)	(-164,1)	(-6,3)	(-2,3)	(15,2)	(-1,4)	(0,4)	(3,5)	(-25,1)	(-5,11)	
L1D 2>	(0,104)	(1,11)	(4,1)	(5,4)	(-2,13)	(-3,7)	(-1,9)	(-4,3)	(-58,3)	(-7,6)	(-41,4)	(-6,3)	(-14,11)	(56,4)	(7,3)	(2,70)	
L1D 3>	(1,41)	(40,1)	(-3,79)	(-187,10)	(5,48)	(0,15)	(17,58)	(9,17)	(-8,13)	(-20,17)	(-14,2)	(6,24)	(13,28)	(-4,34)	(-7,14)	(-11,54)	
L1D 4>	(-46,42)	(36,18)	(5,124)	(-4,27)	(45,26)	(-3,18)	(-158,1)	(-71,9)	(-6,9)	(-12,58)	(9,101)	(-8,19)	(-17,24)	(4,13)	(-24,23)	(-35,28)	
L1D 5>	(44,1)	(-8,2)	(9,35)	(-10,1)	(1,6)	(4,28)	(35,11)	(-4,5)	(-244,3)	(-37,7)	(-5,89)	(0,11)	(-7,4)	(-17,6)	(31,6)	(40,8)	
L1D 6>	(27,12)	(-10,11)	(2,1)	(21,12)	(-6,15)	(11,20)	(0,3)	(-33,75)	(-174,4)	(-2,9)	(-27,2)	(123,11)	(14,25)	(13,7)	(-180,3)	(1,5)	
L1D 7>	(-6,11)	(0,59)	(-4,45)	(-52,1)	(13,25)	(9,32)	(4,42)	(-9,9)	(-11,17)	(23,11)	(-7,47)	(-10,48)	(1,70)	(3,16)	(-1,34)	(-5,26)	
L1D 8>	(1,97)	(4,19)	(43,25)	(-6,4)	(11,16)	(-177,1)	(47,2)	(-10,3)	(31,1)	(-12,1)	(-320,3)	(-9,2)	(8,7)	(0,12)	(-41,2)	(-7,1)	
L1D 9>	(-17,39)	(-10,5)	(40,31)	(-7,10)	(4,47)	(5,36)	(35,1)	(-26,12)	(9,84)	(-16,11)	(-31,8)	(-21,13)	(-22,34)	(-13,41)	(-12,35)	(-25,2)	
L1D 10>	(4,5)	(0,81)	(2,3)	(1,10)	(-9,46)	(-12,4)	(-10,75)	(7,5)	(-11,61)	(-15,3)	(241,1)	(-6,3)	(8,12)	(-8,9)	(3,20)	(15,1)	
L1D 11>	(0,89)	(-18,11)	(-9,30)	(-12,1)	(-2,14)	(5,7)	(-10,54)	(1,21)	(-7,23)	(36,82)	(23,47)	(-16,57)	(4,1)	(47,46)	(-20,13)	(-15,8)	
L1D 12>	(-110,1)	(5,3)	(-9,4)	(24,2)	(-3,87)	(-12,4)	(-10,7)	(4,5)	(-7,35)	(-14,1)	(-2,4)	(1,19)	(-30,2)	(-6,2)	(118,5)	(-20,3)	
L1D 13>	(9,23)	(-18,34)	(7,19)	(-34,58)	(-19,1)	(0,77)	(-8,2)	(59,8)	(20,38)	(13,27)	(-11,35)	(26,6)	(40,26)	(-36,15)	(-12,13)	(1,41)	
L1D 14>	(-27,6)	(-15,4)	(0,103)	(26,4)	(-9,5)	(25,1)	(-13,108)	(-26,3)	(59,1)	(-14,9)	(-11,3)	(36,2)	(-19,11)	(-8,6)	(-16,29)	(23,30)	
L1D 15>	(0,60)	(-28,13)	(-26,31)	(-11,21)	(1,120)	(4,15)	(-16,55)	(16,22)	(-12,17)	(-6,1)	(2,68)	(-8,21)	(-5,46)	(18,127)	(-10,22)	(23,12)	
L1D 16>	(-4,3)	(23,36)	(1,62)	(-13,1)	(59,10)	(-19,5)	(2,13)	(-9,11)	(0,102)	(332,13)	(40,17)	(-2,2)	(-15,10)	(-11,39)	(72,8)	(47,95)	
L1D 17>	(-11,73)	(2,33)	(-19,11)	(-31,0)	(4,18)	(-10,25)	(-23,6)	(-15,13)	(-20,6)	(-22,4)	(-5,71)	(-18,1)	(-13,27)	(-16,70)	(0,28)	(-17,12)	
L1D 18>	(-61,10)	(-19,36)	(-11,90)	(-15,12)	(72,75)	(-9,44)	(-23,1)	(-35,44)	(21,19)	(-78,1)	(-16,1)	(0,73)	(-18,9)	(2,112)	(-46,3)	(36,11)	
L1D 19>	(-6,12)	(0,54)	(1,79)	(-18,23)	(-1,31)	(-9,100)	(220,1)	(7,2)	(-19,15)	(-11,8)	(-15,28)	(72,11)	(-12,2)	(-13,38)	(36,11)	(-20,37)	
L1D 20>	(-16,64)	(-19,43)	(-2,1)	(-22,4)	(-98,0)	(-1,0)	(-20,7)	(0,1)	(-17,3)	(-6,1)	(-21,3)	(-14,2)	(1,0)	(5,20)	(-26,7)	(-18,2)	
L1D 21>	(7,5)	(-21,9)	(-3,1)	(4,2)	(-99,9)	(-2,4)	(-15,69)	(11,6)	(-23,5)	(0,1)	(-26,3)	(-39,0)	(-18,7)	(-17,2)	(-12,28)	(-24,12)	
L1D 22>	(-33,7)	(-108,34)	(-62,3)	(-16,57)	(2,1)	(0,2)	(306,31)	(-66,29)	(-19,11)	(9,45)	(4,10)	(-24,4)	(-60,10)	(146,95)	(-21,3)	(-111,2)	
L1D 23>	(4,119)	(-24,6)	(-15,2)	(-31,1)	(-1,16)	(-12,1)	(-23,4)	(-36,0)	(-20,5)	(-16,0)	(-17,0)	(0,0)	(-22,8)	(15,13)	(-33,2)	(46,0)	
L1D 24>	(146,22)	(9,13)	(32,18)	(-9,1)	(-15,120)	(-20,2)	(93,13)	(48,4)	(-13,4)	(-21,4)	(-23,1)	(29,24)	(-24,11)	(75,14)	(0,7)	(2,4)	
L1D 25>	(50,1)	(-27,35)	(-12,67)	(-24,8)	(2,4)	(9,0)	(-26,16)	(49,1)	(-6,1)	(-25,10)	(12,2)	(-18,36)	(-15,52)	(0,5)	(-16,2)	(1,0)	
L1D 26>	(54,17)	(-21,3)	(-20,6)	(1,3)	(2,30)	(-26,15)	(-12,29)	(27,1)	(0,4)	(-15,104)	(-39,3)	(-3,3)	(-28,4)	(-13,2)	(-25,0)	(-9,1)	
L1D 27>	(-35,2)	(-23,6)	(-15,71)	(54,6)	(-60,49)	(-162,1)	(53,4)	(-40,3)	(27,9)	(-27,9)	(-54,33)	(-13,53)	(-87,8)	(-28,3)	(-48,14)	(-81,6)	
L1D 28>	(-14,48)	(-28,115)	(-347,2)	(-39,1)	(-27,47)	(-412,1)	(8,12)	(-85,10)	(28,17)	(-54,16)	(55,2)	(17,9)	(-26,8)	(4,32)	(-25,1)	(147,3)	
L1D 29>	(-29,1)	(-15,106)	(58,1)	(-28,24)	(-31,20)	(73,1)	(-12,50)	(-4,1)	(1,2)	(69,2)	(-246,1)	(-36,1)	(-39,1)	(0,1)	(22,3)	(-278,1)	
L1D 30>	(-32,7)	(-1,0)	(75,4)	(14,0)	(-13,5)	(93,4)	(4,40)	(-33,66)	(-34,2)	(60,0)	(-162,0)	(-23,0)	(0,0)	(41,0)	(-2,0)	(-31,1)	
L1D 31>	(40,87)	(5,1)	(-43,1)	(-324,2)	(-243,1)	(-203,2)	(-1,0)	(47,0)	(4,6)	(7,0)	(-202,0)	(0,2)	(-34,1)	(54,0)	(41,20)	(-162,0)	
L1D 32>	(-64,0)	(-10,0)	(9,0)	(-31,97)	(241,0)	(64,0)	(-30,0)	(40,3)	(70,1)	(-56,0)	(-40,0)	(-2,0)	(-34,1)	(0,0)	(-39,0)	(4,0)	
L1D 33>	(-7,1)	(27,0)	(279,0)	(-27,61)	(54,0)	(108,1)	(-60,93)	(-33,0)	(9,0)	(135,0)	(81,0)	(291,0)	(-443,0)	(-132,0)	(273,0)	(0,0)	
L1D 34>	(3,0)	(-36,72)	(-3,0)	(26,14)	(-1,0)	(9,0)	(68,1)	(-8,5)	(-33,92)	(1,1)	(70,0)	(-15,0)	(17,0)	(-2,0)	(0,0)	(-34,1)	
L1D 35>	(41,73)	(-162,2)	(-243,1)	(-121,7)	(7,2)	(2,0)	(4,6)	(-34,39)	(-116,0)	(-31,0)	(5,23)	(-202,8)	(-117,2)	(-113,0)	(0,27)	(40,7)	
L1D 36>	(2,1)	(4,87)	(-162,1)	(-30,10)	(128,4)	(-35,15)	(-31,4)	(40,83)	(-32,4)	(-37,5)	(-16,1)	(-36,2)	(-34,11)	(0,8)	(-43,5)	(-243,1)	
L1D 37>	(-35,119)	(41,0)	(-34,0)	(-45,0)	(-40,1)	(-23,0)	(-2,0)	(4,2)	(159,0)	(-1,0)	(-37,1)	(-20,0)	(-38,8)	(-54,0)	(1,0)	(-17,0)	
L1D 38>	(0,61)	(1,19)	(-44,2)	(-98,8)	(15,10)	(5,2)	(41,15)	(-2,34)	(76,1)	(-30,4)	(4,3)	(170,1)	(-39,1)	(12,3)	(40,13)	(-12,76)	
L1D 39>	(-21,47)	(11,114)	(40,85)	(-40,75)	(-30,14)	(1,15)	(41,67)	(-9,22)	(-13,5)	(-12,68)	(-99,28)	(-1,5)	(4,22)	(-3,4)	(-39,1)	(9,2)	
L1D 40>	(41,86)	(-283,2)	(-53,0)	(-202,0)	(-27,0)	(-323,0)	(40,5)	(5,11)	(-3,0)	(0,0)	(-242,0)	(-40,3)	(-121,3)	(14,0)	(77,0)	(9,7)	
L1D 41>	(40,81)	(-45,0)	(-36,0)	(4,16)	(-324,9)	(-122,3)	(-202,0)	(2,0)	(-161,0)	(-243,0)	(-43,1)	(-364,0)	(-42,0)	(-198,0)	(-81,3)	(0,2)	
L1D 42>	(4,43)	(8,2)	(5,1)	(-45,8)	(13,0)	(0,72)	(-46,3)	(-42,27)	(-16,0)	(67,5)	(84,0)	(128,0)	(-41,41)	(2,53)	(-20,0)	(9,0)	
L1D 43>	(-42,106)	(-1,0)	(-49,0)	(-43,0)	(67,2)	(2,27)	(23,0)	(42,0)	(-54,1)	(11,1)	(0,50)	(3,0)	(20,0)	(86,0)	(-2,0)	(40,0)	
L1D 44>	(-45,3)	(-6,1)	(8,1)	(12,0)	(24,0)	(41,48)	(18,6)	(40,93)	(-118,0)	(-39,3)	(4,1)	(2,6)	(5,8)	(0,4)	(11,0)	(1,9)	
L1D 45>	(4,68)	(27,0)	(0,29)	(-1,1)	(8,2)	(-9,6)	(-44,0)	(-41,0)	(5,0)	(40,19)	(-324,0)	(11,2)	(-31,2)	(-3,4)	(-119,1)	(9,0)	
L1D 46>	(90,1)	(4,4)	(26,99)	(-10,1)	(47,1)	(-50,1)	(-91,0)	(-45,66)	(-42,5)	(-51,0)	(-49,2)	(92,0)	(6,0)	(-46,5)	(-4,0)	(-43,1)	
L1D 47>	(4,27)	(-46,117)	(-34,18)	(-49,2)	(-43,1)	(6,0)	(-40,2)	(-30,50)	(-45,6)	(2,57)	(-47,69)	(0,9)	(-36,6)	(-31,7)	(-37,16)	(-4,13)	
L1D 48>	(0,107)	(-46,5)	(-1,20)	(14,9)	(-34,1)	(-45,2)	(-48,76)	(72,4)	(2,9)	(-49,49)	(3,2)	(96,4)	(15,47)	(-93,2)	(-51,2)	(95,2)	
L1D 49>	(-50,42)	(4,85)	(100,1)	(-48,25)	(-49,2)	(-42,29)	(-9,1)	(-43,26)	(-45,25)	(40,1)	(-57,9)	(-44,1)	(5,1)	(9,5)	(-41,45)	(-46,22)	
L1D 50>	(-62,1)	(-110,6)	(21,33)	(100,2)	(-111,0)	(-44,1)	(102,0)	(2,4)	(-50,2)	(-2,6)	(-48,14)	(-7,2)	(-12,5)	(0,3)	(99,0)	(-36,89)	
L1D 51>	(-32,0)	(-54,70)	(0,0)	(-36,0)	(-37,0)	(102,1)	(9,0)	(-38,0)	(-65,0)	(-51,1)	(-35,18)	(-12,37)	(-34,1)	(-11,1)	(-5,21)	(-49,0)	
L1D 52>	(26,2)	(-52,7)	(-64,1)	(-13,1)	(-55,24)	(4,1)	(-51,2)	(106,1)	(-23,8)	(-12,82)	(-62,4)	(-36,4)	(-39,1)	(104,5)	(-26,1)	(0,1)	
L1D 53>	(105,3)	(-53,10)	(-65,1)	(-52,85)	(170,5)	(6,15)	(0,3)	(4,13)	(-54,12)	(108,8)	(-14,1)	(-13,57)	(-26,1)	(-36,2)	(5,10)	(106,2)	
L1D 54>	(27,22)	(54,13)	(-168,24)	(-53,17)	(108,65)	(9,6)	(-108,21)	(4,17)	(-141,1)	(-87,100)	(-81,67)	(-27,90)	(1,7)	(107,26)	(81,13)	(-114,26)	
L1D 55>	(-36,9)	(4,8)	(-37,2)	(1,1)	(0,2)	(-35,1)	(-34,4)	(112,1)	(-63,11)	(-74,1)	(-78,5)	(-55,66)	(13,17)	(110,3)	(-76,34)	(3,2)	
L1D 56>	(-48,79)	(-60,0)	(-55,26)	(0,7)	(4,1)	(-40,0)	(26,0)	(-56,14)	(84,0)	(-54,0)	(-57,0)	(-58,2)	(-11,2)	(2,0)	(112,0)	(1,0)	
L1D 57>	(-47,41)	(-80,0)	(171,0)	(-57,21)	(0,0)	(1,0)	(2,77)	(-40,5)	(-45,0)	(-75,3)	(-48,0)	(17,0)	(114,0)	(-78,4)	(13,1)	(-2,0)	
L1D 58>	(0,1)	(170,6)	(1,1)	(-192,0)	(-56,15)	(116,4)	(-62,2)	(-58,4)	(-47,73)	(9,11)	(-42,0)	(-11,3)	(3,0)	(4,8)	(114,0)	(118,2)	
L1D 59>	(4,33)	(-85,0)	(-44,0)	(1,0)	(-58,51)	(-47,4)	(-56,87)	(6,0)	(-40,0)	(-60,16)	(-48,5)	(3,0)	(118,0)	(-59,2)	(-51,0)	(-68,4)	
L1D 60>	(39,30)	(-60,30)	(38,17)	(18,16)	(-61,5)	(120,0)	(122,0)	(27,4)	(0,1)	(-27,93)	(81,4)	(54,3)	(321,1)	(108,1)	(-87,31)	(-54,21)	
L1D 61>	(9,5)	(0,11)	(-62,65)	(-63,0)	(39,2)	(-58,1)	(-60,1)	(-7,0)	(2,0)	(18,1)	(-61,0)	(37,0)	(38,2)	(1,0)	(1,0)	(1,0)	
L1D 62>	(196,121)	(37,11)	(124,1)	(0,1)	(-47,4)	(-61,1)	(14,0)	(123,0)	(-63,0)	(20,0)	(-1,0)	(3,1)	(-62,1)	(1,0)	(-44,0)	(-66,0)	
L1D 63>	(-61,2)	(-64,0)	(17,0)	(9,1)	(5,0)	(6,0)	(2,34)	(0,0)	(-40,1)	(-54,0)	(-47,73)	(-45,4)	(-44,2)	(-18,3)	(-36,0)	(125,0)	
L1D 64>	(-77,0)	(-11,85)	(0,6)	(-63,0)	(1,5)	(127,0)	(-64,0)	(166,0)	(-134,0)	(-12,24)	(-127,0)	(-73,0)	(-65,0)	(128,0)	(-1,0)	(2,0)	
L1D 65>	(-67,73)	(-1,0)	(-77,0)	(0,3)	(-39,0)	(-79,0)	(-26,0)	(-66,0)	(-70,0)	(-12,42)	(-52,1)	(-78,1)	(-104,0)	(4,0)	(56,0)	(1,0)	
L1D 66>	(-68,33)	(4,78)	(-70,6)	(1,0)	(-67,8)	(-69,8)	(-13,0)	(-71,0)	(17,0)	(-59,0)	(134,0)	(-72,0)	(-66,1)	(82,0)	(-6,0)	(280,0)	
L1D 67>	(93,2)	(13,47)	(47,1)	(-110,67)	(4,95)	(-67,75)	(-75,4)	(-114,6)	(-76,2)	(-77,41)	(-78,78)	(-68,57)	(134,6)	(9,45)	(-79,9)	(-70,4)	
L1D 68>	(-62,98)	(-67,52)	(114,14)	(0,0)	(-28,0)	(40,0)	(-70,1)	(164,0)	(82,0)	(180,0)	(-6,0)	(-20,0)	(-1,0)	(-68,2)	(1,0)	(136,1)	
L1D 69>	(9,5)	(-2,29)	(46,9)	(137,5)	(4,6)	(2,2)	(3,5)	(-1,1)	(-4,3)	(-69,4)	(-64,13)	(-67,126)	(-47,104)	(1,15)	(138,3)	(93,6)	
L1D 70>	(9,12)	(288,0)	(152,6)	(7,79)	(0,10)	(-40,23)	(-68,0)	(-70,7)	(6,76)	(114,0)	(139,1)	(140,6)	(142,3)	(138,2)	(-69,2)	(-19,1)	
L1D 71>	(141,1)	(46,1)	(4,3)	(-243,1)	(93,5)	(-108,0)	(-7,1)	(-70,97)	(2,0)	(-67,0)	(-4,0)	(-68,1)	(144,0)	(-40,3)	(-79,0)	(41,0)	
L1D 72>	(4,60)	(-79,1)	(-72,0)	(-73,7)	(-19,0)	(-70,13)	(-68,12)	(-74,22)	(-71,50)	(2,4)	(0,1)	(-67,43)	(9,0)	(-66,93)	(-76,1)	(-11,0)	
L1D 73>	(0,13)	(-82,106)	(-123,1)	(-7,0)	(-245,0)	(1,4)	(-72,0)	(2,1)	(145,0)	(-73,0)	(4,3)	(146,0)	(9,0)	(-6,0)	(-75,0)	(-74,3)	
L1D 74>	(-72,2)	(-74,1)	(2,94)	(-1,0)	(-147,0)	(0,41)	(36,0)	(148,1)	(147,0)	(-77,1)	(150,0)	(362,0)	(-34,0)	(18,0)	(-56,0)	(-73,0)	
L1D 75>	(-74,29)	(68,0)	(-75,6)	(1,1)	(0,19)	(-149,0)	(2,14)	(16,111)	(4,7)	(40,0)	(152,0)	(3,0)	(5,0)	(-72,0)	(150,0)	(-407,0)	
L1D 76>	(-82,6)	(1,42)	(-2,12)	(40,47)	(-75,59)	(-78,16)	(-1,120)	(0,61)	(4,34)	(-4,23)	(5,11)	(-77,50)	(-36,37)	(9,111)	(154,1)	(41,28)	
L1D 77>	(-79,108)	(-12,23)	(-72,1)	(4,103)	(-80,10)	(-81,12)	(80,4)	(-78,18)	(-7,1)	(-76,7)	(0,0)	(-5,0)	(5,0)	(-82,0)	(-36,4)	(-39,0)	
L1D 78>	(9,11)	(-78,112)	(20,12)	(-82,1)	(4,20)	(-91,0)	(-81,1)	(-12,72)	(-79,0)	(-86,4)	(-18,26)	(11,6)	(0,0)	(-77,18)	(21,3)	(44,0)	
L1D 79>	(-78,114)	(-76,2)	(41,19)	(4,1)	(20,0)	(40,0)	(-18,0)	(-92,1)	(-3,8)	(9,1)	(-8,43)	(-2,8)	(-10,0)	(-89,4)	(29,0)	(2,0)	
L1D 80>	(-53,1)	(7,1)	(1,1)	(9,78)	(-36,0)	(108,1)	(-3,32)	(14,0)	(-8,12)	(-84,9)	(-80,2)	(5,3)	(41,2)	(35,1)	(40,5)	(6,0)	
L1D 81>	(-82,4)	(-4,17)	(-81,7)	(40,79)	(-41,27)	(27,16)	(-168,19)	(41,17)	(-114,35)	(54,1)	(-54,37)	(-135,12)	(-40,10)	(-27,35)	(-141,13)	(-108,33)	
L1D 82>	(-81,15)	(4,51)	(-86,11)	(42,2)	(-5,14)	(-78,71)	(-82,7)	(-80,2)	(-36,3)	(-42,3)	(-77,33)	(-107,21)	(35,9)	(-184,5)	(-9,5)	(5,1)	
L1D 83>	(3,1)	(-82,107)	(1,1)	(-73,0)	(-165,0)	(-190,0)	(-85,2)	(4,22)	(0,8)	(-2,0)	(283,1)	(-81,1)	(243,3)	(-79,0)	(5,4)	(-78,4)	
L1D 84>	(-4,104)	(0,1)	(9,1)	(5,1)	(1,10)	(-82,1)	(-57,3)	(-171,1)	(3,2)	(-85,13)	(77,0)	(171,1)	(-175,0)	(41,56)	(-40,16)	(2,2)	
[...]
L1D 480>	(4,1)	(1,1)	(0,1)	(-27,25)	(6,7)	(1,0)	(1,0)	(1,0)	(1,0)	(1,0)	(1,0)	(1,0)	(1,0)	(1,0)	(1,0)	(1,0)	
L1D 481>	(-1,8)	(4,7)	(3,1)	(-14,1)	(1,0)	(1,0)	(1,0)	(1,0)	(1,0)	(1,0)	(1,0)	(1,0)	(1,0)	(1,0)	(1,0)	(1,0)	
L1D 482>	(0,1)	(1,1)	(4,2)	(-282,1)	(1,0)	(1,0)	(1,0)	(1,0)	(1,0)	(1,0)	(1,0)	(1,0)	(1,0)	(1,0)	(1,0)	(1,0)	
L1D 483>	(0,3)	(4,5)	(1,1)	(1,0)	(1,0)	(1,0)	(1,0)	(1,0)	(1,0)	(1,0)	(1,0)	(1,0)	(1,0)	(1,0)	(1,0)	(1,0)	
L1D 484>	(1,0)	(1,0)	(1,0)	(1,0)	(1,0)	(1,0)	(1,0)	(1,0)	(1,0)	(1,0)	(1,0)	(1,0)	(1,0)	(1,0)	(1,0)	(1,0)	
L1D 485>	(4,4)	(-92,1)	(1,0)	(1,0)	(1,0)	(1,0)	(1,0)	(1,0)	(1,0)	(1,0)	(1,0)	(1,0)	(1,0)	(1,0)	(1,0)	(1,0)	
L1D 486>	(0,1)	(-20,1)	(4,2)	(9,2)	(1,2)	(1,0)	(1,0)	(1,0)	(1,0)	(1,0)	(1,0)	(1,0)	(1,0)	(1,0)	(1,0)	(1,0)	
L1D 487>	(4,1)	(1,0)	(1,0)	(1,0)	(1,0)	(1,0)	(1,0)	(1,0)	(1,0)	(1,0)	(1,0)	(1,0)	(1,0)	(1,0)	(1,0)	(1,0)	
L1D 488>	(1,0)	(1,0)	(1,0)	(1,0)	(1,0)	(1,0)	(1,0)	(1,0)	(1,0)	(1,0)	(1,0)	(1,0)	(1,0)	(1,0)	(1,0)	(1,0)	
L1D 489>	(4,1)	(0,1)	(1,0)	(1,0)	(1,0)	(1,0)	(1,0)	(1,0)	(1,0)	(1,0)	(1,0)	(1,0)	(1,0)	(1,0)	(1,0)	(1,0)	
L1D 490>	(-491,1)	(1,2)	(-204,1)	(0,1)	(1,0)	(1,0)	(1,0)	(1,0)	(1,0)	(1,0)	(1,0)	(1,0)	(1,0)	(1,0)	(1,0)	(1,0)	
L1D 491>	(-491,1)	(1,1)	(1,0)	(1,0)	(1,0)	(1,0)	(1,0)	(1,0)	(1,0)	(1,0)	(1,0)	(1,0)	(1,0)	(1,0)	(1,0)	(1,0)	
L1D 492>	(1,1)	(-10,1)	(2,1)	(0,1)	(-48,1)	(-492,1)	(1,0)	(1,0)	(1,0)	(1,0)	(1,0)	(1,0)	(1,0)	(1,0)	(1,0)	(1,0)	
L1D 493>	(4,1)	(-12,1)	(1,0)	(1,0)	(1,0)	(1,0)	(1,0)	(1,0)	(1,0)	(1,0)	(1,0)	(1,0)	(1,0)	(1,0)	(1,0)	(1,0)	
L1D 494>	(1,3)	(-10,1)	(-13,1)	(-12,1)	(-1,2)	(-14,1)	(1,0)	(1,0)	(1,0)	(1,0)	(1,0)	(1,0)	(1,0)	(1,0)	(1,0)	(1,0)	
L1D 495>	(-1,6)	(-14,2)	(-13,2)	(4,1)	(1,0)	(1,0)	(1,0)	(1,0)	(1,0)	(1,0)	(1,0)	(1,0)	(1,0)	(1,0)	(1,0)	(1,0)	
L1D 496>	(6,1)	(1,0)	(1,0)	(1,0)	(1,0)	(1,0)	(1,0)	(1,0)	(1,0)	(1,0)	(1,0)	(1,0)	(1,0)	(1,0)	(1,0)	(1,0)	
L1D 497>	(1,0)	(1,0)	(1,0)	(1,0)	(1,0)	(1,0)	(1,0)	(1,0)	(1,0)	(1,0)	(1,0)	(1,0)	(1,0)	(1,0)	(1,0)	(1,0)	
L1D 498>	(4,1)	(1,0)	(1,0)	(1,0)	(1,0)	(1,0)	(1,0)	(1,0)	(1,0)	(1,0)	(1,0)	(1,0)	(1,0)	(1,0)	(1,0)	(1,0)	
L1D 499>	(1,0)	(1,0)	(1,0)	(1,0)	(1,0)	(1,0)	(1,0)	(1,0)	(1,0)	(1,0)	(1,0)	(1,0)	(1,0)	(1,0)	(1,0)	(1,0)	
L1D 500>	(-488,1)	(1,0)	(1,0)	(1,0)	(1,0)	(1,0)	(1,0)	(1,0)	(1,0)	(1,0)	(1,0)	(1,0)	(1,0)	(1,0)	(1,0)	(1,0)	
L1D 501>	(4,1)	(1,0)	(1,0)	(1,0)	(1,0)	(1,0)	(1,0)	(1,0)	(1,0)	(1,0)	(1,0)	(1,0)	(1,0)	(1,0)	(1,0)	(1,0)	
L1D 502>	(1,1)	(1,0)	(1,0)	(1,0)	(1,0)	(1,0)	(1,0)	(1,0)	(1,0)	(1,0)	(1,0)	(1,0)	(1,0)	(1,0)	(1,0)	(1,0)	
L1D 503>	(4,1)	(1,0)	(1,0)	(1,0)	(1,0)	(1,0)	(1,0)	(1,0)	(1,0)	(1,0)	(1,0)	(1,0)	(1,0)	(1,0)	(1,0)	(1,0)	
L1D 504>	(0,1)	(1,0)	(1,0)	(1,0)	(1,0)	(1,0)	(1,0)	(1,0)	(1,0)	(1,0)	(1,0)	(1,0)	(1,0)	(1,0)	(1,0)	(1,0)	
L1D 505>	(1,0)	(1,0)	(1,0)	(1,0)	(1,0)	(1,0)	(1,0)	(1,0)	(1,0)	(1,0)	(1,0)	(1,0)	(1,0)	(1,0)	(1,0)	(1,0)	
L1D 506>	(0,1)	(-12,1)	(1,1)	(1,0)	(1,0)	(1,0)	(1,0)	(1,0)	(1,0)	(1,0)	(1,0)	(1,0)	(1,0)	(1,0)	(1,0)	(1,0)	
L1D 507>	(-27,11)	(-13,2)	(-14,1)	(-1,1)	(1,1)	(-4,1)	(1,0)	(1,0)	(1,0)	(1,0)	(1,0)	(1,0)	(1,0)	(1,0)	(1,0)	(1,0)	
L1D 508>	(1,1)	(-4,6)	(-1,1)	(-13,1)	(1,0)	(1,0)	(1,0)	(1,0)	(1,0)	(1,0)	(1,0)	(1,0)	(1,0)	(1,0)	(1,0)	(1,0)	
L1D 509>	(1,0)	(1,0)	(1,0)	(1,0)	(1,0)	(1,0)	(1,0)	(1,0)	(1,0)	(1,0)	(1,0)	(1,0)	(1,0)	(1,0)	(1,0)	(1,0)	
L1D 510>	(1,0)	(1,0)	(1,0)	(1,0)	(1,0)	(1,0)	(1,0)	(1,0)	(1,0)	(1,0)	(1,0)	(1,0)	(1,0)	(1,0)	(1,0)	(1,0)	
L1D 511>	(1,0)	(1,0)	(1,0)	(1,0)	(1,0)	(1,0)	(1,0)	(1,0)	(1,0)	(1,0)	(1,0)	(1,0)	(1,0)	(1,0)	(1,0)	(1,0)	

L2C -64>	(1,71)	(2,17)	(-1,250)	(-2,158)	(9,23)	(-7,12)	(4,17)	(-5,32)	(-3,172)	(-4,99)	(3,10)	(5,21)	(-8,13)	(11,30)	(38,13)	(24,1)	
L2C -63>	(0,1)	(4,1)	(27,1)	(2,1)	(1,2)	(15,1)	(1,0)	(1,0)	(1,0)	(1,0)	(1,0)	(1,0)	(1,0)	(1,0)	(1,0)	(1,0)	
L2C -62>	(58,1)	(1,6)	(18,3)	(2,2)	(10,1)	(11,1)	(13,1)	(1,0)	(1,0)	(1,0)	(1,0)	(1,0)	(1,0)	(1,0)	(1,0)	(1,0)	
L2C -61>	(1,8)	(9,2)	(3,1)	(2,3)	(-1,3)	(24,1)	(18,1)	(7,1)	(43,1)	(1,0)	(1,0)	(1,0)	(1,0)	(1,0)	(1,0)	(1,0)	
L2C -60>	(1,9)	(-2,1)	(11,3)	(18,1)	(17,1)	(25,1)	(-1,1)	(46,2)	(10,1)	(4,1)	(6,1)	(12,1)	(1,0)	(1,0)	(1,0)	(1,0)	
L2C -59>	(1,15)	(57,3)	(-3,1)	(7,1)	(25,1)	(11,5)	(54,1)	(43,1)	(27,1)	(2,3)	(15,1)	(-2,1)	(-1,3)	(46,1)	(10,1)	(1,0)	
L2C -58>	(1,8)	(0,1)	(9,2)	(43,2)	(3,3)	(5,1)	(11,30)	(8,3)	(34,1)	(22,4)	(6,1)	(10,1)	(57,1)	(20,1)	(4,1)	(-1,1)	
L2C -57>	(11,31)	(2,4)	(1,43)	(46,1)	(9,14)	(35,1)	(13,1)	(40,1)	(-1,3)	(22,4)	(5,1)	(6,4)	(57,3)	(44,2)	(0,4)	(48,1)	
L2C -56>	(1,9)	(11,226)	(55,2)	(6,1)	(2,1)	(12,1)	(9,11)	(14,1)	(7,0)	(3,0)	(22,30)	(8,2)	(-1,5)	(5,0)	(-2,0)	(33,8)	
L2C -55>	(1,30)	(12,2)	(21,5)	(49,4)	(10,33)	(11,5)	(-1,14)	(32,5)	(4,2)	(50,2)	(39,2)	(3,1)	(52,1)	(14,3)	(-2,3)	(46,1)	
L2C -54>	(56,2)	(1,24)	(7,4)	(6,10)	(3,5)	(46,1)	(50,3)	(0,3)	(5,2)	(25,1)	(41,4)	(-1,1)	(11,12)	(4,4)	(-8,1)	(9,4)	
L2C -53>	(1,23)	(14,2)	(54,13)	(49,2)	(8,2)	(5,2)	(20,1)	(34,2)	(51,3)	(11,6)	(48,2)	(6,3)	(36,1)	(3,11)	(13,2)	(26,1)	
L2C -52>	(9,2)	(48,2)	(1,22)	(32,1)	(-1,3)	(5,1)	(4,3)	(3,3)	(11,8)	(18,2)	(27,1)	(6,4)	(-3,4)	(7,1)	(-4,2)	(12,2)	
L2C -51>	(52,2)	(1,34)	(-1,4)	(13,4)	(6,4)	(10,3)	(3,5)	(2,2)	(11,10)	(39,2)	(5,3)	(17,2)	(-7,2)	(43,1)	(9,2)	(4,1)	
L2C -50>	(51,6)	(-4,1)	(1,31)	(7,2)	(-2,6)	(-1,7)	(15,2)	(44,2)	(54,1)	(3,4)	(46,1)	(49,1)	(2,6)	(18,2)	(12,1)	(9,1)	
L2C -49>	(-3,3)	(14,2)	(1,37)	(-2,6)	(-5,2)	(-1,6)	(48,2)	(2,8)	(0,4)	(-4,2)	(11,4)	(50,3)	(15,1)	(23,1)	(12,3)	(20,1)	
L2C -48>	(1,25)	(2,7)	(-1,16)	(18,3)	(49,8)	(-3,2)	(48,1)	(5,7)	(-5,3)	(11,13)	(3,4)	(-10,1)	(6,2)	(-7,2)	(35,1)	(9,5)	
L2C -47>	(1,28)	(-3,2)	(8,7)	(7,2)	(39,2)	(20,2)	(-7,3)	(14,1)	(9,2)	(11,24)	(2,8)	(18,2)	(51,1)	(22,1)	(48,3)	(4,3)	
L2C -46>	(1,27)	(9,4)	(3,6)	(11,44)	(44,8)	(-1,19)	(12,6)	(6,6)	(-2,5)	(42,3)	(0,4)	(-10,5)	(-3,1)	(52,1)	(-11,2)	(4,7)	
L2C -45>	(11,175)	(7,2)	(-1,8)	(22,26)	(-5,1)	(2,2)	(5,1)	(1,10)	(18,1)	(33,2)	(8,2)	(12,1)	(-3,1)	(23,1)	(9,2)	(6,1)	
L2C -44>	(-11,8)	(1,47)	(2,25)	(-1,18)	(20,3)	(-2,6)	(0,6)	(44,14)	(14,6)	(6,5)	(7,12)	(13,1)	(-3,6)	(52,1)	(11,15)	(10,59)	
L2C -43>	(5,24)	(1,55)	(2,11)	(11,7)	(0,5)	(40,5)	(46,2)	(-1,22)	(45,3)	(41,2)	(47,1)	(33,1)	(12,3)	(23,3)	(3,22)	(-13,2)	
L2C -42>	(7,5)	(45,3)	(2,33)	(1,52)	(-1,28)	(13,1)	(52,3)	(43,11)	(22,2)	(36,1)	(-3,10)	(41,4)	(-14,3)	(51,2)	(24,4)	(11,11)	
L2C -41>	(1,65)	(4,5)	(10,17)	(2,22)	(9,5)	(-1,24)	(40,4)	(42,5)	(0,18)	(43,64)	(39,4)	(16,3)	(-7,7)	(41,1)	(37,24)	(5,13)	
L2C -40>	(1,128)	(-2,36)	(-1,9)	(5,17)	(4,4)	(11,1)	(-5,2)	(-3,9)	(2,22)	(41,4)	(3,4)	(45,0)	(10,6)	(42,5)	(-4,3)	(-6,1)	
L2C -39>	(1,161)	(0,8)	(41,4)	(5,11)	(40,9)	(18,6)	(8,3)	(3,11)	(39,10)	(-3,6)	(22,6)	(-6,5)	(11,5)	(2,25)	(30,1)	(-2,26)	
L2C -38>	(1,56)	(5,10)	(41,3)	(3,7)	(6,1)	(40,10)	(2,17)	(34,3)	(4,4)	(25,3)	(7,4)	(-3,10)	(39,27)	(13,6)	(11,8)	(15,2)	
L2C -37>	(11,15)	(3,18)	(2,20)	(1,67)	(40,8)	(-1,34)	(18,12)	(37,3)	(4,6)	(-2,5)	(36,5)	(5,13)	(-6,1)	(32,4)	(41,3)	(7,3)	
L2C -36>	(1,78)	(37,6)	(11,25)	(3,13)	(2,16)	(-5,1)	(0,34)	(-1,34)	(33,8)	(-3,8)	(5,21)	(41,3)	(36,10)	(-2,14)	(-4,3)	(23,3)	
L2C -35>	(7,5)	(2,28)	(5,34)	(1,112)	(-4,4)	(12,13)	(-3,9)	(27,3)	(11,33)	(-2,20)	(33,16)	(3,9)	(6,7)	(8,5)	(-1,5)	(9,1)	
L2C -34>	(-10,2)	(1,84)	(3,8)	(-7,3)	(21,1)	(11,175)	(-3,7)	(7,7)	(9,2)	(22,30)	(13,2)	(2,27)	(0,5)	(33,10)	(5,7)	(40,1)	
L2C -33>	(1,117)	(-2,16)	(36,3)	(11,17)	(5,13)	(16,1)	(-7,2)	(-1,57)	(2,65)	(4,9)	(33,11)	(32,4)	(34,5)	(38,6)	(20,8)	(10,43)	
L2C -32>	(1,104)	(3,35)	(-4,6)	(9,1)	(-1,49)	(8,13)	(6,6)	(5,14)	(34,3)	(33,5)	(-3,14)	(0,5)	(2,60)	(47,2)	(14,4)	(11,10)	
L2C -31>	(1,68)	(10,8)	(2,47)	(5,38)	(-3,44)	(-1,64)	(-2,38)	(3,29)	(22,4)	(30,10)	(7,5)	(28,2)	(36,4)	(32,6)	(0,2)	(12,3)	
L2C -30>	(1,141)	(-4,10)	(-2,17)	(-3,14)	(5,24)	(2,69)	(-1,38)	(0,15)	(31,8)	(15,1)	(3,15)	(9,5)	(43,2)	(10,2)	(18,2)	(28,4)	
L2C -29>	(2,67)	(1,177)	(-2,59)	(-1,47)	(11,17)	(8,10)	(30,18)	(0,63)	(6,1)	(27,5)	(10,6)	(29,5)	(32,5)	(25,4)	(13,6)	(-3,23)	
L2C -28>	(24,7)	(2,48)	(3,14)	(-6,10)	(-3,23)	(1,160)	(11,4)	(-1,26)	(-2,6)	(0,7)	(5,10)	(28,2)	(-17,1)	(19,2)	(-10,6)	(10,4)	
L2C -27>	(5,20)	(6,3)	(2,56)	(1,55)	(0,4)	(28,3)	(3,33)	(29,6)	(17,5)	(-1,43)	(-3,13)	(25,1)	(4,11)	(-2,47)	(-4,8)	(18,5)	
L2C -26>	(21,7)	(5,39)	(-17,1)	(2,49)	(-4,3)	(1,74)	(-1,44)	(26,3)	(36,2)	(27,5)	(7,5)	(11,15)	(0,6)	(20,6)	(17,8)	(-2,10)	
L2C -25>	(1,62)	(2,27)	(5,38)	(4,7)	(11,32)	(-1,30)	(3,11)	(7,6)	(-2,21)	(28,3)	(27,7)	(16,1)	(13,10)	(-3,23)	(-7,4)	(0,5)	
L2C -24>	(1,140)	(-1,53)	(3,13)	(10,14)	(-3,24)	(-7,4)	(2,22)	(11,21)	(9,14)	(15,5)	(0,1)	(5,25)	(-17,3)	(18,7)	(7,5)	(-4,12)	
L2C -23>	(1,70)	(-2,20)	(5,18)	(10,6)	(22,18)	(31,4)	(-3,10)	(19,6)	(-20,1)	(-9,4)	(-1,35)	(-11,3)	(4,5)	(2,15)	(3,4)	(11,194)	
L2C -22>	(1,94)	(5,29)	(-3,32)	(11,22)	(10,76)	(-2,32)	(2,20)	(3,12)	(33,10)	(12,11)	(-11,13)	(-1,80)	(14,7)	(21,14)	(26,6)	(-9,1)	
L2C -21>	(2,52)	(1,131)	(13,9)	(5,37)	(-2,14)	(20,8)	(10,10)	(22,7)	(3,24)	(-29,1)	(-3,24)	(11,17)	(-1,41)	(9,9)	(7,12)	(6,6)	
L2C -20>	(-1,33)	(6,1)	(1,100)	(-2,20)	(20,5)	(3,46)	(-4,21)	(10,31)	(-9,5)	(12,7)	(5,32)	(-7,15)	(2,25)	(13,11)	(-3,34)	(16,11)	
L2C -19>	(1,238)	(18,15)	(-3,28)	(15,7)	(5,16)	(-2,51)	(3,34)	(20,17)	(29,1)	(-7,7)	(11,12)	(8,8)	(-17,5)	(-1,44)	(-14,2)	(7,7)	
L2C -18>	(-1,29)	(1,245)	(3,21)	(2,55)	(19,97)	(0,9)	(5,14)	(-3,28)	(4,7)	(16,26)	(32,1)	(-7,18)	(-2,13)	(17,11)	(7,2)	(-5,10)	
L2C -17>	(2,15)	(4,7)	(1,197)	(18,73)	(-6,1)	(-3,51)	(3,29)	(-17,4)	(-5,12)	(-2,83)	(10,17)	(-7,21)	(5,5)	(-1,13)	(-8,9)	(19,29)	
L2C -16>	(2,198)	(1,80)	(17,21)	(16,25)	(11,13)	(13,6)	(0,38)	(19,1)	(8,7)	(-3,22)	(-10,10)	(3,160)	(5,38)	(10,10)	(-11,19)	(-1,51)	
L2C -15>	(1,188)	(-3,52)	(18,7)	(5,21)	(11,30)	(8,11)	(2,25)	(6,1)	(-1,43)	(9,8)	(10,35)	(12,10)	(22,5)	(19,7)	(-6,10)	(17,26)	
L2C -14>	(5,20)	(1,182)	(-4,11)	(7,33)	(12,8)	(33,1)	(4,37)	(-2,67)	(-1,35)	(13,7)	(3,19)	(-3,107)	(2,43)	(15,28)	(11,36)	(6,43)	
L2C -13>	(1,251)	(11,21)	(-2,21)	(2,32)	(-4,88)	(-7,84)	(-1,59)	(3,132)	(5,1)	(21,5)	(16,8)	(15,6)	(19,6)	(10,54)	(12,13)	(-11,9)	
L2C -12>	(1,137)	(-1,53)	(9,8)	(11,192)	(23,11)	(4,8)	(-12,4)	(-2,49)	(2,47)	(-4,16)	(10,12)	(3,38)	(-35,1)	(-3,63)	(12,5)	(8,6)	
L2C -11>	(1,187)	(-3,99)	(5,67)	(-1,95)	(4,58)	(6,26)	(17,24)	(7,31)	(2,53)	(-2,1)	(8,88)	(9,30)	(-4,64)	(12,40)	(-7,41)	(13,18)	
L2C -10>	(-1,30)	(2,9)	(60,1)	(1,86)	(3,89)	(9,4)	(5,3)	(-10,24)	(-4,59)	(-3,134)	(11,18)	(0,17)	(7,56)	(-7,61)	(13,20)	(-2,24)	
L2C -9>	(1,244)	(10,101)	(2,65)	(-1,185)	(-3,99)	(6,59)	(-2,87)	(3,23)	(14,28)	(15,9)	(4,37)	(5,53)	(7,10)	(13,1)	(45,3)	(8,44)	
L2C -8>	(1,84)	(2,6)	(6,8)	(-2,14)	(7,3)	(-3,96)	(-1,31)	(10,19)	(4,33)	(9,10)	(3,45)	(11,2)	(-7,5)	(-4,228)	(5,22)	(-20,1)	
L2C -7>	(1,13)	(-10,18)	(-1,22)	(10,10)	(8,3)	(-13,4)	(17,2)	(2,5)	(4,25)	(-4,30)	(3,21)	(-3,162)	(0,1)	(-2,22)	(5,8)	(-7,20)	
L2C -6>	(2,24)	(1,201)	(-3,59)	(5,50)	(-1,234)	(7,53)	(33,1)	(3,40)	(22,3)	(6,46)	(-7,11)	(4,28)	(-2,81)	(8,20)	(9,7)	(15,11)	
L2C -5>	(-4,67)	(1,136)	(2,27)	(4,20)	(-1,108)	(-3,95)	(-18,1)	(3,40)	(7,17)	(-2,136)	(-7,31)	(5,15)	(0,6)	(6,17)	(10,16)	(9,14)	
L2C -4>	(1,58)	(2,13)	(-3,222)	(-1,87)	(-4,52)	(3,9)	(-35,2)	(-10,5)	(-2,40)	(8,16)	(5,19)	(-7,4)	(18,2)	(22,1)	(-8,1)	(7,4)	
L2C -3>	(1,89)	(-2,104)	(6,13)	(-7,75)	(-1,183)	(-28,1)	(4,113)	(-10,8)	(7,29)	(-3,138)	(0,4)	(-4,195)	(2,33)	(3,7)	(5,13)	(8,7)	
L2C -2>	(-2,54)	(4,4)	(-3,7)	(18,2)	(-1,181)	(3,6)	(1,15)	(6,1)	(11,2)	(0,15)	(2,4)	(7,1)	(16,1)	(8,2)	(5,2)	(9,3)	
L2C -1>	(-5,0)	(-1,143)	(-10,0)	(20,0)	(1,2)	(-2,15)	(24,0)	(26,0)	(11,0)	(4,0)	(0,0)	(-4,1)	(5,0)	(7,0)	(-3,5)	(2,3)	
L2C 0>	(1,7)	(-6,1)	(0,170)	(-1,46)	(6,1)	(-4,1)	(-5,0)	(3,1)	(31,0)	(-2,4)	(5,0)	(-8,0)	(-57,0)	(-3,0)	(4,1)	(2,1)	
L2C 1>	(-23,1)	(1,173)	(-2,82)	(-6,5)	(2,39)	(3,15)	(-1,64)	(-8,8)	(0,29)	(-3,66)	(18,12)	(4,5)	(5,3)	(-4,66)	(-5,18)	(15,2)	
L2C 2>	(1,156)	(5,11)	(0,14)	(-1,243)	(4,6)	(-7,4)	(2,18)	(-3,69)	(-5,18)	(-41,1)	(3,7)	(-10,5)	(18,25)	(-2,77)	(-4,92)	(-6,10)	
L2C 3>	(1,133)	(-4,32)	(-7,23)	(4,8)	(-6,6)	(-1,76)	(11,1)	(2,23)	(-3,12)	(18,3)	(3,12)	(19,9)	(-2,44)	(5,13)	(-10,38)	(-5,11)	
L2C 4>	(1,179)	(3,49)	(18,15)	(-1,53)	(-6,49)	(2,15)	(-2,56)	(-5,89)	(-7,81)	(-14,7)	(5,31)	(8,1)	(-8,194)	(-3,122)	(7,5)	(-4,11)	
L2C 5>	(10,15)	(5,160)	(-34,1)	(1,31)	(6,6)	(-3,5)	(-4,5)	(-2,10)	(-18,3)	(-7,5)	(-17,2)	(0,4)	(2,3)	(-19,1)	(-8,4)	(-1,21)	
L2C 6>	(1,193)	(14,20)	(2,14)	(-1,99)	(-4,19)	(-7,34)	(-2,35)	(0,19)	(15,18)	(3,17)	(-3,43)	(13,1)	(-5,13)	(-9,10)	(10,6)	(5,67)	
L2C 7>	(1,218)	(3,85)	(14,100)	(-6,61)	(-4,80)	(-8,37)	(-3,236)	(6,11)	(-2,153)	(-5,1)	(-9,49)	(18,10)	(-1,73)	(-10,151)	(-17,38)	(-11,64)	
L2C 8>	(1,238)	(-6,45)	(2,28)	(-1,54)	(-3,67)	(-11,30)	(-4,43)	(14,5)	(-12,9)	(-2,36)	(-10,1)	(7,5)	(-7,86)	(-9,12)	(-54,4)	(5,18)	
L2C 9>	(-2,22)	(-12,16)	(1,246)	(11,56)	(6,5)	(14,5)	(0,7)	(5,41)	(15,1)	(10,11)	(-8,20)	(2,33)	(-5,10)	(-1,52)	(-3,31)	(-11,21)	
L2C 10>	(11,108)	(5,202)	(1,180)	(-12,8)	(-7,60)	(2,29)	(10,41)	(-13,51)	(-35,1)	(-11,39)	(-3,81)	(-4,16)	(3,28)	(-1,39)	(-9,21)	(-14,41)	
L2C 11>	(-7,3)	(11,143)	(18,11)	(22,4)	(1,13)	(-10,3)	(-22,4)	(-34,15)	(-23,6)	(-56,13)	(-15,2)	(5,7)	(-45,15)	(3,1)	(-3,4)	(-12,6)	
L2C 12>	(1,238)	(-11,27)	(2,27)	(-13,18)	(-1,74)	(6,5)	(4,7)	(5,36)	(-19,6)	(-5,17)	(-6,11)	(11,22)	(-4,24)	(-14,14)	(-2,17)	(31,1)	
L2C 13>	(1,161)	(-3,37)	(-6,16)	(-17,26)	(-20,29)	(-22,5)	(-11,8)	(2,16)	(5,25)	(-16,7)	(-10,46)	(-15,4)	(-5,18)	(10,11)	(-1,28)	(-46,1)	
L2C 14>	(-13,20)	(1,142)	(33,3)	(-10,21)	(-2,34)	(-9,5)	(-4,30)	(2,19)	(-7,41)	(-3,64)	(-1,21)	(10,30)	(0,11)	(13,1)	(-21,4)	(-16,10)	
L2C 15>	(-1,58)	(-16,14)	(-10,11)	(-7,28)	(-14,20)	(2,22)	(-2,11)	(1,191)	(-4,17)	(3,17)	(15,3)	(-11,15)	(5,100)	(7,4)	(-3,24)	(10,1)	
L2C 16>	(1,198)	(-21,1)	(15,11)	(-16,72)	(-1,37)	(-20,7)	(2,77)	(-15,22)	(-17,13)	(-3,37)	(7,6)	(5,119)	(6,7)	(3,24)	(-18,20)	(0,16)	
L2C 17>	(5,29)	(1,191)	(-16,40)	(-15,18)	(2,31)	(-7,12)	(-3,31)	(-17,13)	(-10,23)	(11,1)	(-4,6)	(-14,11)	(-13,13)	(-11,6)	(-1,32)	(4,24)	
L2C 18>	(-22,2)	(-54,1)	(-20,1)	(-17,134)	(-4,3)	(-16,8)	(-3,11)	(1,16)	(5,2)	(-6,1)	(2,1)	(-1,3)	(3,1)	(19,2)	(-2,3)	(-10,0)	
L2C 19>	(1,245)	(-1,169)	(-17,33)	(-18,205)	(11,15)	(-4,47)	(-15,10)	(4,7)	(-10,8)	(-16,96)	(-24,10)	(2,71)	(-3,60)	(5,1)	(-27,6)	(-12,9)	
L2C 20>	(2,19)	(-29,5)	(1,132)	(5,60)	(-34,6)	(-1,28)	(-10,18)	(-22,8)	(-21,9)	(4,5)	(8,5)	(11,27)	(-17,121)	(-9,1)	(-18,95)	(-2,13)	
L2C 21>	(1,153)	(5,48)	(-2,48)	(-17,20)	(3,51)	(-10,28)	(-18,23)	(-3,108)	(-7,49)	(11,25)	(-1,25)	(-20,7)	(-4,38)	(2,11)	(-5,19)	(7,1)	
L2C 22>	(1,73)	(-3,45)	(7,5)	(-15,7)	(-18,212)	(-16,5)	(-11,11)	(-1,74)	(-33,13)	(11,183)	(2,15)	(-23,27)	(-5,1)	(-56,37)	(-34,7)	(-17,6)	
L2C 23>	(-1,43)	(3,10)	(1,135)	(10,7)	(-4,32)	(-12,10)	(-18,11)	(-3,10)	(2,18)	(5,27)	(-2,10)	(4,6)	(-22,5)	(-5,7)	(-16,37)	(8,1)	
L2C 24>	(-5,12)	(7,24)	(1,111)	(-24,5)	(-23,5)	(2,26)	(-1,22)	(-9,11)	(-13,13)	(-18,8)	(-31,5)	(-3,198)	(-10,35)	(-17,8)	(-2,27)	(3,1)	
L2C 25>	(1,137)	(-10,10)	(-7,54)	(2,14)	(-3,57)	(-23,1)	(-1,50)	(3,66)	(-5,9)	(-31,4)	(10,11)	(-32,6)	(18,3)	(-16,7)	(-2,11)	(-4,39)	
L2C 26>	(1,116)	(-25,13)	(-9,11)	(10,4)	(-2,14)	(5,17)	(3,27)	(2,19)	(-33,1)	(-7,4)	(-3,18)	(-4,36)	(-5,16)	(-1,33)	(-16,17)	(-18,7)	
L2C 27>	(1,109)	(-3,10)	(3,1)	(-1,19)	(5,9)	(-40,2)	(2,21)	(4,6)	(-26,9)	(-22,5)	(11,3)	(-2,14)	(-30,4)	(-32,4)	(8,4)	(-4,5)	
L2C 28>	(-3,148)	(-28,1)	(-7,67)	(4,28)	(10,36)	(7,51)	(-10,16)	(1,68)	(-1,23)	(-4,55)	(13,9)	(-14,5)	(3,92)	(-27,5)	(-23,2)	(-2,14)	
L2C 29>	(1,106)	(5,9)	(2,12)	(-16,1)	(3,11)	(-1,36)	(-17,10)	(-7,17)	(-28,9)	(-8,4)	(-18,5)	(-21,4)	(-4,24)	(-3,15)	(-27,11)	(-29,9)	
L2C 30>	(2,17)	(-2,10)	(-29,9)	(1,125)	(-3,11)	(-32,12)	(3,16)	(-28,5)	(-31,90)	(-16,5)	(5,25)	(-1,26)	(-19,1)	(-33,16)	(-34,5)	(-21,6)	
L2C 31>	(-9,4)	(1,41)	(-1,14)	(5,5)	(2,9)	(10,23)	(-5,1)	(-15,2)	(-3,148)	(-10,20)	(-7,66)	(3,51)	(7,35)	(4,10)	(14,3)	(-24,2)	
L2C 32>	(2,12)	(1,74)	(13,6)	(11,10)	(-30,4)	(-29,6)	(10,12)	(-5,4)	(-7,19)	(-4,73)	(-22,1)	(3,38)	(-14,3)	(-24,3)	(-31,6)	(-1,20)	
L2C 33>	(1,113)	(-26,7)	(-1,22)	(-56,11)	(-32,5)	(-31,11)	(-16,4)	(3,3)	(2,24)	(-34,5)	(5,10)	(-2,9)	(-28,10)	(-14,1)	(11,35)	(-5,4)	
L2C 34>	(1,80)	(2,18)	(-30,14)	(14,5)	(-1,11)	(-29,24)	(-4,8)	(-31,8)	(-10,17)	(-28,1)	(10,18)	(-6,8)	(7,50)	(4,23)	(5,19)	(-3,133)	
L2C 35>	(1,51)	(2,13)	(-36,5)	(-1,6)	(-10,14)	(3,48)	(-30,7)	(7,16)	(10,19)	(-17,15)	(-34,0)	(-4,26)	(-16,2)	(-3,46)	(13,7)	(-7,130)	
L2C 36>	(-1,17)	(-16,10)	(1,66)	(-29,21)	(2,22)	(-5,7)	(-3,2)	(-13,3)	(13,3)	(-36,22)	(-12,3)	(-25,2)	(-9,2)	(-30,26)	(-31,11)	(-37,5)	
L2C 37>	(-37,11)	(-40,17)	(1,52)	(-3,13)	(-23,3)	(-1,14)	(5,2)	(3,17)	(-39,1)	(-6,2)	(-38,13)	(2,28)	(-31,6)	(16,1)	(-16,2)	(-24,1)	
L2C 38>	(2,21)	(1,57)	(-14,22)	(-4,34)	(-17,14)	(-26,3)	(-5,1)	(-7,140)	(3,77)	(-22,1)	(-13,11)	(7,36)	(-10,104)	(-3,182)	(-42,3)	(-30,1)	
L2C 39>	(1,80)	(17,9)	(-39,13)	(5,2)	(-3,2)	(-16,2)	(-38,7)	(3,9)	(-1,13)	(-24,1)	(19,3)	(-2,7)	(-31,1)	(-41,7)	(11,1)	(2,12)	
L2C 40>	(-44,3)	(1,111)	(2,17)	(-39,6)	(-3,5)	(3,15)	(-28,3)	(-1,12)	(-16,5)	(-5,6)	(5,2)	(-41,2)	(4,3)	(-36,2)	(0,7)	(-42,2)	
L2C 41>	(1,80)	(13,1)	(-13,36)	(-41,6)	(5,12)	(-19,3)	(0,3)	(4,12)	(-17,19)	(-7,111)	(3,45)	(-10,101)	(7,18)	(-3,221)	(-20,5)	(-22,4)	
L2C 42>	(1,43)	(3,53)	(-10,19)	(-41,6)	(-1,15)	(-2,4)	(-43,9)	(0,5)	(-40,11)	(-3,1)	(2,10)	(5,4)	(-7,96)	(-17,11)	(-14,32)	(-4,32)	
L2C 43>	(-41,63)	(1,24)	(-50,2)	(-42,10)	(-20,5)	(-4,31)	(-1,19)	(3,5)	(-35,2)	(-24,3)	(-19,3)	(-3,4)	(-33,3)	(-44,3)	(-26,1)	(8,1)	
L2C 44>	(-35,1)	(1,36)	(-1,13)	(-44,3)	(0,14)	(-3,50)	(-23,4)	(-40,5)	(2,11)	(-13,11)	(-10,21)	(-2,3)	(-38,3)	(-43,4)	(-7,2)	(-56,4)	
L2C 45>	(1,32)	(-60,2)	(3,20)	(2,8)	(-26,2)	(-1,4)	(-41,4)	(-17,59)	(-7,181)	(-3,138)	(-14,34)	(-10,82)	(-4,72)	(-20,12)	(-13,9)	(-2,1)	
L2C 46>	(1,52)	(-1,4)	(-50,2)	(-45,8)	(3,2)	(-2,3)	(-49,4)	(-3,3)	(2,7)	(-30,2)	(-27,3)	(-46,1)	(-5,1)	(-47,2)	(-28,1)	(-18,1)	
L2C 47>	(-30,1)	(1,37)	(-2,3)	(-26,1)	(-46,4)	(2,6)	(-3,5)	(-48,4)	(-42,3)	(10,3)	(-32,3)	(-33,4)	(-44,1)	(-37,2)	(-19,2)	(3,3)	
L2C 48>	(-43,16)	(-3,51)	(1,35)	(-17,24)	(-28,3)	(-14,11)	(3,7)	(-10,39)	(-47,8)	(-49,1)	(2,7)	(-4,22)	(-20,16)	(-7,53)	(-13,13)	(-24,2)	
L2C 49>	(-50,3)	(1,54)	(2,5)	(-48,9)	(-28,1)	(7,2)	(-43,2)	(-33,3)	(-25,2)	(-15,1)	(-41,2)	(-31,1)	(-1,8)	(4,1)	(-39,3)	(-3,3)	
L2C 50>	(1,31)	(-48,5)	(-49,5)	(-2,1)	(-1,6)	(-51,5)	(-19,1)	(-33,4)	(-52,3)	(-41,2)	(-26,1)	(2,14)	(-7,1)	(-57,2)	(5,2)	(6,2)	
L2C 51>	(-47,3)	(-49,2)	(-1,5)	(1,40)	(-3,2)	(-58,2)	(2,7)	(-48,1)	(-33,3)	(-56,2)	(-50,5)	(-7,1)	(-10,1)	(-53,4)	(-19,1)	(-52,7)	
L2C 52>	(1,29)	(-4,1)	(-3,3)	(-53,14)	(-1,5)	(-38,1)	(-13,1)	(-12,2)	(-19,1)	(-5,1)	(-26,3)	(-14,1)	(-37,1)	(-55,1)	(4,2)	(-56,2)	
L2C 53>	(1,35)	(-3,3)	(-54,7)	(-4,1)	(-29,1)	(-51,3)	(-47,2)	(-1,3)	(-11,1)	(2,5)	(-31,1)	(-20,1)	(-42,2)	(-44,2)	(-56,1)	(4,2)	
L2C 54>	(1,25)	(-55,3)	(-26,1)	(-28,1)	(-34,2)	(-61,1)	(-2,4)	(-1,5)	(-11,2)	(-54,2)	(-53,2)	(3,1)	(-23,1)	(-41,1)	(6,1)	(-40,1)	
L2C 55>	(-44,5)	(0,31)	(1,15)	(-57,4)	(-4,1)	(-3,1)	(-1,2)	(-11,1)	(-29,1)	(-56,3)	(3,1)	(-46,1)	(-5,1)	(-27,1)	(-7,1)	(-45,1)	
L2C 56>	(-58,1)	(1,11)	(3,1)	(-21,1)	(-57,2)	(-44,1)	(-1,2)	(0,2)	(-24,1)	(-45,3)	(-55,1)	(-4,1)	(-2,2)	(-36,1)	(-43,1)	(-3,6)	
L2C 57>	(1,13)	(-4,1)	(-46,1)	(-1,5)	(-5,1)	(-3,2)	(-57,2)	(-39,1)	(-13,1)	(-2,1)	(-30,1)	(-49,1)	(1,0)	(1,0)	(1,0)	(1,0)	
L2C 58>	(1,7)	(-59,2)	(-1,1)	(-23,2)	(2,1)	(-10,1)	(-17,1)	(-57,1)	(-51,1)	(-26,1)	(-2,1)	(1,0)	(1,0)	(1,0)	(1,0)	(1,0)	
L2C 59>	(1,3)	(-2,3)	(-1,5)	(-34,1)	(-8,1)	(-10,1)	(-63,1)	(-3,1)	(-12,1)	(-4,1)	(-56,1)	(-61,1)	(1,0)	(1,0)	(1,0)	(1,0)	
L2C 60>	(0,1)	(-59,1)	(1,3)	(-1,1)	(-2,5)	(-35,1)	(-30,1)	(-7,2)	(3,1)	(-16,1)	(-3,6)	(-4,5)	(1,0)	(1,0)	(1,0)	(1,0)	
L2C 61>	(-2,2)	(-60,2)	(1,1)	(-56,1)	(-1,2)	(-3,1)	(1,0)	(1,0)	(1,0)	(1,0)	(1,0)	(1,0)	(1,0)	(1,0)	(1,0)	(1,0)	
L2C 62>	(-29,1)	(-58,1)	(-2,3)	(-1,4)	(-6,1)	(1,0)	(1,0)	(1,0)	(1,0)	(1,0)	(1,0)	(1,0)	(1,0)	(1,0)	(1,0)	(1,0)	
L2C 63>	(-4,1)	(0,1)	(-27,1)	(-1,8)	(-3,6)	(1,0)	(1,0)	(1,0)	(1,0)	(1,0)	(1,0)	(1,0)	(1,0)	(1,0)	(1,0)	(1,0)	

DRAM Statistics
 CHANNEL 0
 RQ ROW_BUFFER_HIT:     330005  ROW_BUFFER_MISS:     620578
 DBUS_CONGESTED:     490051
 WQ ROW_BUFFER_HIT:      12124  ROW_BUFFER_MISS:      98054  FULL:          0

 AVG_CONGESTED_CYCLE: 6
