
*** ChampSim Multicore Out-of-Order Simulator ***

Warmup Instructions: 1000000
Simulation Instructions: 10000000
Number of CPUs: 4
LLC sets: 8192
LLC ways: 16
Off-chip DRAM Size: 4096 MB Channels: 1 Width: 64-bit Data Rate: 3200 MT/s

CPU 0 runs /home/virtualcse/Data-Prefetching/ChampSim/dpc3_traces/625.x264_s-18B.champsimtrace.xz
CPU 1 runs /home/virtualcse/Data-Prefetching/ChampSim/dpc3_traces/631.deepsjeng_s-928B.champsimtrace.xz
CPU 2 runs /home/virtualcse/Data-Prefetching/ChampSim/dpc3_traces/648.exchange2_s-1699B.champsimtrace.xz
CPU 3 runs /home/virtualcse/Data-Prefetching/ChampSim/dpc3_traces/619.lbm_s-3766B.champsimtrace.xz
Ultra pref. initializing...
Ultra pref. initialized
Ultra pref. initializing...
Ultra pref. initialized
Ultra pref. initializing...
Ultra pref. initialized
Ultra pref. initializing...
Ultra pref. initialized
Ultra pref. initializing...
Ultra pref. initialized
Ultra pref. initializing...
Ultra pref. initialized
Ultra pref. initializing...
Ultra pref. initialized
Ultra pref. initializing...
Ultra pref. initialized

Warmup complete CPU 0 instructions: 1121235 cycles: 378159 (Simulation time: 0 hr 0 min 9 sec) 
Warmup complete CPU 1 instructions: 1000004 cycles: 378159 (Simulation time: 0 hr 0 min 9 sec) 
Warmup complete CPU 2 instructions: 1235598 cycles: 378158 (Simulation time: 0 hr 0 min 9 sec) 
Warmup complete CPU 3 instructions: 1171174 cycles: 378158 (Simulation time: 0 hr 0 min 9 sec) 

Heartbeat CPU 2 instructions: 10000001 cycles: 4101922 heartbeat IPC: 2.43788 cumulative IPC: 2.35364 (Simulation time: 0 hr 0 min 47 sec) 
Finished CPU 2 instructions: 10000001 cycles: 4249449 cumulative IPC: 2.35325 (Simulation time: 0 hr 0 min 52 sec) 
Heartbeat CPU 0 instructions: 10000000 cycles: 4745260 heartbeat IPC: 2.10737 cumulative IPC: 2.0331 (Simulation time: 0 hr 0 min 53 sec) 
Finished CPU 0 instructions: 10000000 cycles: 4939462 cumulative IPC: 2.02451 (Simulation time: 0 hr 0 min 58 sec) 
Heartbeat CPU 3 instructions: 10000001 cycles: 7089202 heartbeat IPC: 1.4106 cumulative IPC: 1.31557 (Simulation time: 0 hr 1 min 14 sec) 
Heartbeat CPU 2 instructions: 20000000 cycles: 8293948 heartbeat IPC: 2.38548 cumulative IPC: 2.3705 (Simulation time: 0 hr 1 min 25 sec) 
Finished CPU 3 instructions: 10000001 cycles: 7926746 cumulative IPC: 1.26155 (Simulation time: 0 hr 1 min 25 sec) 
Heartbeat CPU 1 instructions: 10000003 cycles: 8750808 heartbeat IPC: 1.14275 cumulative IPC: 1.07493 (Simulation time: 0 hr 1 min 30 sec) 
Finished CPU 1 instructions: 10000001 cycles: 9297120 cumulative IPC: 1.0756 (Simulation time: 0 hr 1 min 38 sec) 

CPU 0 Branch Prediction Accuracy: 97.7728% MPKI: 0.799179 Average ROB Occupancy at Mispredict: 247.19

CPU 1 Branch Prediction Accuracy: 91.5068% MPKI: 9.4132 Average ROB Occupancy at Mispredict: 45.6902

CPU 2 Branch Prediction Accuracy: 97.2596% MPKI: 3.6602 Average ROB Occupancy at Mispredict: 49.7813

CPU 3 Branch Prediction Accuracy: 99.8996% MPKI: 0.0105273 Average ROB Occupancy at Mispredict: 339.893

ChampSim completed all CPUs

Total Simulation Statistics (not including warmup)

CPU 0 cumulative IPC: 1.98237 instructions: 18430294 cycles: 9297120
L1D TOTAL     ACCESS:    3113927  HIT:    3102942  MISS:      10985
L1D LOAD      ACCESS:    1358597  HIT:    1350894  MISS:       7703
L1D RFO       ACCESS:    1250860  HIT:    1250664  MISS:        196
L1D PREFETCH  ACCESS:     504470  HIT:     501384  MISS:       3086
L1D WRITEBACK ACCESS:          0  HIT:          0  MISS:          0
L1I TOTAL     ACCESS:     999086  HIT:     999084  MISS:          2
L1I LOAD      ACCESS:     999086  HIT:     999084  MISS:          2
L1I RFO       ACCESS:          0  HIT:          0  MISS:          0
L1I PREFETCH  ACCESS:          0  HIT:          0  MISS:          0
L1I WRITEBACK ACCESS:          0  HIT:          0  MISS:          0
L2C TOTAL     ACCESS:      25162  HIT:      16167  MISS:       8995
L2C LOAD      ACCESS:       7193  HIT:       3316  MISS:       3877
L2C RFO       ACCESS:        196  HIT:         26  MISS:        170
L2C PREFETCH  ACCESS:      17585  HIT:      12639  MISS:       4946
L2C WRITEBACK ACCESS:        188  HIT:        186  MISS:          2

L1D -512>	(-1,43)	(0,119)	(1,39)	(3,55)	(-17,20)	(-5,38)	(-9,22)	(4,57)	(10,7)	(-13,20)	(-53,1)	(-6,10)	(-8,3)	(-11,5)	(6,12)	(88,19)	
L1D -511>	(1,0)	(1,0)	(1,0)	(1,0)	(1,0)	(1,0)	(1,0)	(1,0)	(1,0)	(1,0)	(1,0)	(1,0)	(1,0)	(1,0)	(1,0)	(1,0)	
L1D -510>	(1,0)	(1,0)	(1,0)	(1,0)	(1,0)	(1,0)	(1,0)	(1,0)	(1,0)	(1,0)	(1,0)	(1,0)	(1,0)	(1,0)	(1,0)	(1,0)	
L1D -509>	(-1,2)	(1,0)	(1,0)	(1,0)	(1,0)	(1,0)	(1,0)	(1,0)	(1,0)	(1,0)	(1,0)	(1,0)	(1,0)	(1,0)	(1,0)	(1,0)	
L1D -508>	(-1,1)	(1,0)	(1,0)	(1,0)	(1,0)	(1,0)	(1,0)	(1,0)	(1,0)	(1,0)	(1,0)	(1,0)	(1,0)	(1,0)	(1,0)	(1,0)	
L1D -507>	(1,0)	(1,0)	(1,0)	(1,0)	(1,0)	(1,0)	(1,0)	(1,0)	(1,0)	(1,0)	(1,0)	(1,0)	(1,0)	(1,0)	(1,0)	(1,0)	
L1D -506>	(-5,3)	(1,0)	(1,0)	(1,0)	(1,0)	(1,0)	(1,0)	(1,0)	(1,0)	(1,0)	(1,0)	(1,0)	(1,0)	(1,0)	(1,0)	(1,0)	
L1D -505>	(-5,2)	(1,0)	(1,0)	(1,0)	(1,0)	(1,0)	(1,0)	(1,0)	(1,0)	(1,0)	(1,0)	(1,0)	(1,0)	(1,0)	(1,0)	(1,0)	
L1D -504>	(-2,1)	(1,0)	(1,0)	(1,0)	(1,0)	(1,0)	(1,0)	(1,0)	(1,0)	(1,0)	(1,0)	(1,0)	(1,0)	(1,0)	(1,0)	(1,0)	
L1D -503>	(1,0)	(1,0)	(1,0)	(1,0)	(1,0)	(1,0)	(1,0)	(1,0)	(1,0)	(1,0)	(1,0)	(1,0)	(1,0)	(1,0)	(1,0)	(1,0)	
L1D -502>	(-9,2)	(-5,2)	(96,1)	(1,0)	(1,0)	(1,0)	(1,0)	(1,0)	(1,0)	(1,0)	(1,0)	(1,0)	(1,0)	(1,0)	(1,0)	(1,0)	
L1D -501>	(1,0)	(1,0)	(1,0)	(1,0)	(1,0)	(1,0)	(1,0)	(1,0)	(1,0)	(1,0)	(1,0)	(1,0)	(1,0)	(1,0)	(1,0)	(1,0)	
L1D -500>	(-9,1)	(1,0)	(1,0)	(1,0)	(1,0)	(1,0)	(1,0)	(1,0)	(1,0)	(1,0)	(1,0)	(1,0)	(1,0)	(1,0)	(1,0)	(1,0)	
L1D -499>	(1,1)	(1,0)	(1,0)	(1,0)	(1,0)	(1,0)	(1,0)	(1,0)	(1,0)	(1,0)	(1,0)	(1,0)	(1,0)	(1,0)	(1,0)	(1,0)	
L1D -498>	(88,1)	(-13,1)	(1,0)	(1,0)	(1,0)	(1,0)	(1,0)	(1,0)	(1,0)	(1,0)	(1,0)	(1,0)	(1,0)	(1,0)	(1,0)	(1,0)	
L1D -497>	(-13,2)	(-6,1)	(1,0)	(1,0)	(1,0)	(1,0)	(1,0)	(1,0)	(1,0)	(1,0)	(1,0)	(1,0)	(1,0)	(1,0)	(1,0)	(1,0)	
L1D -496>	(-13,1)	(1,0)	(1,0)	(1,0)	(1,0)	(1,0)	(1,0)	(1,0)	(1,0)	(1,0)	(1,0)	(1,0)	(1,0)	(1,0)	(1,0)	(1,0)	
L1D -495>	(-13,1)	(1,0)	(1,0)	(1,0)	(1,0)	(1,0)	(1,0)	(1,0)	(1,0)	(1,0)	(1,0)	(1,0)	(1,0)	(1,0)	(1,0)	(1,0)	
L1D -494>	(0,1)	(1,0)	(1,0)	(1,0)	(1,0)	(1,0)	(1,0)	(1,0)	(1,0)	(1,0)	(1,0)	(1,0)	(1,0)	(1,0)	(1,0)	(1,0)	
L1D -493>	(-9,1)	(-5,1)	(1,0)	(1,0)	(1,0)	(1,0)	(1,0)	(1,0)	(1,0)	(1,0)	(1,0)	(1,0)	(1,0)	(1,0)	(1,0)	(1,0)	
L1D -492>	(-11,1)	(1,0)	(1,0)	(1,0)	(1,0)	(1,0)	(1,0)	(1,0)	(1,0)	(1,0)	(1,0)	(1,0)	(1,0)	(1,0)	(1,0)	(1,0)	
L1D -491>	(1,0)	(1,0)	(1,0)	(1,0)	(1,0)	(1,0)	(1,0)	(1,0)	(1,0)	(1,0)	(1,0)	(1,0)	(1,0)	(1,0)	(1,0)	(1,0)	
L1D -490>	(1,0)	(1,0)	(1,0)	(1,0)	(1,0)	(1,0)	(1,0)	(1,0)	(1,0)	(1,0)	(1,0)	(1,0)	(1,0)	(1,0)	(1,0)	(1,0)	
L1D -489>	(1,0)	(1,0)	(1,0)	(1,0)	(1,0)	(1,0)	(1,0)	(1,0)	(1,0)	(1,0)	(1,0)	(1,0)	(1,0)	(1,0)	(1,0)	(1,0)	
L1D -488>	(0,1)	(1,0)	(1,0)	(1,0)	(1,0)	(1,0)	(1,0)	(1,0)	(1,0)	(1,0)	(1,0)	(1,0)	(1,0)	(1,0)	(1,0)	(1,0)	
L1D -487>	(0,1)	(1,0)	(1,0)	(1,0)	(1,0)	(1,0)	(1,0)	(1,0)	(1,0)	(1,0)	(1,0)	(1,0)	(1,0)	(1,0)	(1,0)	(1,0)	
L1D -486>	(1,1)	(1,0)	(1,0)	(1,0)	(1,0)	(1,0)	(1,0)	(1,0)	(1,0)	(1,0)	(1,0)	(1,0)	(1,0)	(1,0)	(1,0)	(1,0)	
L1D -485>	(1,0)	(1,0)	(1,0)	(1,0)	(1,0)	(1,0)	(1,0)	(1,0)	(1,0)	(1,0)	(1,0)	(1,0)	(1,0)	(1,0)	(1,0)	(1,0)	
L1D -484>	(0,1)	(1,0)	(1,0)	(1,0)	(1,0)	(1,0)	(1,0)	(1,0)	(1,0)	(1,0)	(1,0)	(1,0)	(1,0)	(1,0)	(1,0)	(1,0)	
L1D -483>	(1,0)	(1,0)	(1,0)	(1,0)	(1,0)	(1,0)	(1,0)	(1,0)	(1,0)	(1,0)	(1,0)	(1,0)	(1,0)	(1,0)	(1,0)	(1,0)	
L1D -482>	(4,1)	(1,0)	(1,0)	(1,0)	(1,0)	(1,0)	(1,0)	(1,0)	(1,0)	(1,0)	(1,0)	(1,0)	(1,0)	(1,0)	(1,0)	(1,0)	
L1D -481>	(123,1)	(1,0)	(1,0)	(1,0)	(1,0)	(1,0)	(1,0)	(1,0)	(1,0)	(1,0)	(1,0)	(1,0)	(1,0)	(1,0)	(1,0)	(1,0)	
L1D -480>	(0,1)	(456,10)	(464,2)	(480,2)	(448,4)	(1,0)	(1,0)	(1,0)	(1,0)	(1,0)	(1,0)	(1,0)	(1,0)	(1,0)	(1,0)	(1,0)	
L1D -479>	(270,2)	(1,0)	(1,0)	(1,0)	(1,0)	(1,0)	(1,0)	(1,0)	(1,0)	(1,0)	(1,0)	(1,0)	(1,0)	(1,0)	(1,0)	(1,0)	
L1D -478>	(121,1)	(498,1)	(400,2)	(1,0)	(1,0)	(1,0)	(1,0)	(1,0)	(1,0)	(1,0)	(1,0)	(1,0)	(1,0)	(1,0)	(1,0)	(1,0)	
L1D -477>	(1,0)	(1,0)	(1,0)	(1,0)	(1,0)	(1,0)	(1,0)	(1,0)	(1,0)	(1,0)	(1,0)	(1,0)	(1,0)	(1,0)	(1,0)	(1,0)	
L1D -476>	(1,0)	(1,0)	(1,0)	(1,0)	(1,0)	(1,0)	(1,0)	(1,0)	(1,0)	(1,0)	(1,0)	(1,0)	(1,0)	(1,0)	(1,0)	(1,0)	
L1D -475>	(0,1)	(475,3)	(411,1)	(1,0)	(1,0)	(1,0)	(1,0)	(1,0)	(1,0)	(1,0)	(1,0)	(1,0)	(1,0)	(1,0)	(1,0)	(1,0)	
L1D -474>	(115,3)	(2,1)	(1,0)	(1,0)	(1,0)	(1,0)	(1,0)	(1,0)	(1,0)	(1,0)	(1,0)	(1,0)	(1,0)	(1,0)	(1,0)	(1,0)	
L1D -473>	(-1,2)	(2,1)	(1,0)	(1,0)	(1,0)	(1,0)	(1,0)	(1,0)	(1,0)	(1,0)	(1,0)	(1,0)	(1,0)	(1,0)	(1,0)	(1,0)	
L1D -472>	(113,2)	(0,1)	(98,1)	(-8,1)	(63,1)	(1,0)	(1,0)	(1,0)	(1,0)	(1,0)	(1,0)	(1,0)	(1,0)	(1,0)	(1,0)	(1,0)	
L1D -471>	(343,3)	(1,2)	(97,1)	(1,0)	(1,0)	(1,0)	(1,0)	(1,0)	(1,0)	(1,0)	(1,0)	(1,0)	(1,0)	(1,0)	(1,0)	(1,0)	
L1D -470>	(281,1)	(96,8)	(1,0)	(1,0)	(1,0)	(1,0)	(1,0)	(1,0)	(1,0)	(1,0)	(1,0)	(1,0)	(1,0)	(1,0)	(1,0)	(1,0)	
L1D -469>	(27,1)	(26,1)	(278,1)	(1,0)	(1,0)	(1,0)	(1,0)	(1,0)	(1,0)	(1,0)	(1,0)	(1,0)	(1,0)	(1,0)	(1,0)	(1,0)	
L1D -468>	(1,0)	(1,0)	(1,0)	(1,0)	(1,0)	(1,0)	(1,0)	(1,0)	(1,0)	(1,0)	(1,0)	(1,0)	(1,0)	(1,0)	(1,0)	(1,0)	
L1D -467>	(1,5)	(4,1)	(1,0)	(1,0)	(1,0)	(1,0)	(1,0)	(1,0)	(1,0)	(1,0)	(1,0)	(1,0)	(1,0)	(1,0)	(1,0)	(1,0)	
L1D -466>	(330,17)	(254,2)	(1,0)	(1,0)	(1,0)	(1,0)	(1,0)	(1,0)	(1,0)	(1,0)	(1,0)	(1,0)	(1,0)	(1,0)	(1,0)	(1,0)	
L1D -465>	(122,1)	(0,2)	(114,1)	(120,1)	(1,0)	(1,0)	(1,0)	(1,0)	(1,0)	(1,0)	(1,0)	(1,0)	(1,0)	(1,0)	(1,0)	(1,0)	
L1D -464>	(0,5)	(113,4)	(448,2)	(1,0)	(1,0)	(1,0)	(1,0)	(1,0)	(1,0)	(1,0)	(1,0)	(1,0)	(1,0)	(1,0)	(1,0)	(1,0)	
L1D -463>	(1,0)	(1,0)	(1,0)	(1,0)	(1,0)	(1,0)	(1,0)	(1,0)	(1,0)	(1,0)	(1,0)	(1,0)	(1,0)	(1,0)	(1,0)	(1,0)	
L1D -462>	(277,1)	(1,0)	(1,0)	(1,0)	(1,0)	(1,0)	(1,0)	(1,0)	(1,0)	(1,0)	(1,0)	(1,0)	(1,0)	(1,0)	(1,0)	(1,0)	
L1D -461>	(1,0)	(1,0)	(1,0)	(1,0)	(1,0)	(1,0)	(1,0)	(1,0)	(1,0)	(1,0)	(1,0)	(1,0)	(1,0)	(1,0)	(1,0)	(1,0)	
L1D -460>	(78,1)	(-5,1)	(144,1)	(260,1)	(0,1)	(67,1)	(1,0)	(1,0)	(1,0)	(1,0)	(1,0)	(1,0)	(1,0)	(1,0)	(1,0)	(1,0)	
L1D -459>	(249,1)	(459,2)	(66,1)	(1,0)	(1,0)	(1,0)	(1,0)	(1,0)	(1,0)	(1,0)	(1,0)	(1,0)	(1,0)	(1,0)	(1,0)	(1,0)	
L1D -458>	(2,2)	(1,1)	(458,6)	(246,1)	(1,0)	(1,0)	(1,0)	(1,0)	(1,0)	(1,0)	(1,0)	(1,0)	(1,0)	(1,0)	(1,0)	(1,0)	
L1D -457>	(2,2)	(122,4)	(106,1)	(329,5)	(350,3)	(332,2)	(322,1)	(1,0)	(1,0)	(1,0)	(1,0)	(1,0)	(1,0)	(1,0)	(1,0)	(1,0)	
L1D -456>	(8,3)	(113,1)	(0,2)	(1,1)	(16,1)	(260,2)	(448,19)	(-8,1)	(1,0)	(1,0)	(1,0)	(1,0)	(1,0)	(1,0)	(1,0)	(1,0)	
L1D -455>	(104,5)	(274,1)	(1,0)	(1,0)	(1,0)	(1,0)	(1,0)	(1,0)	(1,0)	(1,0)	(1,0)	(1,0)	(1,0)	(1,0)	(1,0)	(1,0)	
L1D -454>	(0,2)	(251,1)	(247,10)	(267,1)	(295,1)	(80,2)	(25,1)	(1,0)	(1,0)	(1,0)	(1,0)	(1,0)	(1,0)	(1,0)	(1,0)	(1,0)	
L1D -453>	(0,2)	(453,4)	(1,0)	(1,0)	(1,0)	(1,0)	(1,0)	(1,0)	(1,0)	(1,0)	(1,0)	(1,0)	(1,0)	(1,0)	(1,0)	(1,0)	
L1D -452>	(0,2)	(270,1)	(1,0)	(1,0)	(1,0)	(1,0)	(1,0)	(1,0)	(1,0)	(1,0)	(1,0)	(1,0)	(1,0)	(1,0)	(1,0)	(1,0)	
L1D -451>	(2,3)	(122,2)	(263,1)	(1,1)	(0,1)	(323,1)	(1,0)	(1,0)	(1,0)	(1,0)	(1,0)	(1,0)	(1,0)	(1,0)	(1,0)	(1,0)	
L1D -450>	(2,2)	(115,10)	(1,2)	(304,1)	(400,1)	(384,1)	(314,3)	(270,1)	(392,1)	(1,0)	(1,0)	(1,0)	(1,0)	(1,0)	(1,0)	(1,0)	
L1D -449>	(114,6)	(312,3)	(0,38)	(122,1)	(88,18)	(1,5)	(176,2)	(-1,2)	(2,17)	(352,1)	(1,0)	(1,0)	(1,0)	(1,0)	(1,0)	(1,0)	
L1D -448>	(113,9)	(122,4)	(0,1)	(121,7)	(384,20)	(416,14)	(112,17)	(432,6)	(448,64)	(480,26)	(464,2)	(119,1)	(424,2)	(456,2)	(-8,1)	(1,0)	
L1D -447>	(319,2)	(447,7)	(-2,3)	(8,2)	(0,14)	(121,2)	(119,1)	(384,3)	(7,1)	(112,1)	(88,1)	(1,0)	(1,0)	(1,0)	(1,0)	(1,0)	
L1D -446>	(1,2)	(446,1)	(319,2)	(318,1)	(0,2)	(459,1)	(1,0)	(1,0)	(1,0)	(1,0)	(1,0)	(1,0)	(1,0)	(1,0)	(1,0)	(1,0)	
L1D -445>	(319,1)	(445,1)	(88,2)	(1,0)	(1,0)	(1,0)	(1,0)	(1,0)	(1,0)	(1,0)	(1,0)	(1,0)	(1,0)	(1,0)	(1,0)	(1,0)	
L1D -444>	(0,3)	(1,6)	(88,3)	(2,1)	(144,2)	(93,1)	(67,2)	(260,6)	(252,1)	(-5,1)	(-8,1)	(1,0)	(1,0)	(1,0)	(1,0)	(1,0)	
L1D -443>	(0,9)	(1,19)	(-26,3)	(88,4)	(66,1)	(443,1)	(1,0)	(1,0)	(1,0)	(1,0)	(1,0)	(1,0)	(1,0)	(1,0)	(1,0)	(1,0)	
L1D -442>	(1,112)	(0,54)	(88,45)	(113,2)	(1,0)	(1,0)	(1,0)	(1,0)	(1,0)	(1,0)	(1,0)	(1,0)	(1,0)	(1,0)	(1,0)	(1,0)	
L1D -441>	(1,20)	(0,35)	(88,77)	(176,1)	(352,0)	(440,0)	(264,0)	(-1,2)	(1,0)	(1,0)	(1,0)	(1,0)	(1,0)	(1,0)	(1,0)	(1,0)	
L1D -440>	(0,70)	(1,1)	(63,0)	(88,44)	(-1,0)	(-8,1)	(1,0)	(1,0)	(1,0)	(1,0)	(1,0)	(1,0)	(1,0)	(1,0)	(1,0)	(1,0)	
L1D -439>	(0,98)	(1,16)	(113,3)	(87,7)	(88,119)	(232,2)	(-9,2)	(-1,21)	(459,1)	(-2,1)	(336,0)	(328,0)	(306,0)	(307,0)	(308,1)	(310,1)	
L1D -438>	(438,30)	(459,12)	(212,2)	(276,2)	(311,3)	(0,3)	(88,1)	(330,1)	(336,1)	(358,1)	(367,1)	(306,1)	(340,1)	(338,1)	(328,1)	(323,1)	
L1D -437>	(1,3)	(438,127)	(212,2)	(0,1)	(311,17)	(458,6)	(434,6)	(295,1)	(88,2)	(437,2)	(1,0)	(1,0)	(1,0)	(1,0)	(1,0)	(1,0)	
L1D -436>	(0,2)	(1,3)	(438,64)	(434,8)	(295,3)	(88,1)	(1,0)	(1,0)	(1,0)	(1,0)	(1,0)	(1,0)	(1,0)	(1,0)	(1,0)	(1,0)	
L1D -435>	(1,2)	(435,66)	(294,11)	(434,4)	(438,3)	(431,4)	(210,5)	(261,2)	(93,7)	(264,2)	(92,2)	(104,1)	(105,2)	(250,2)	(260,1)	(97,1)	
L1D -434>	(0,17)	(1,1)	(435,44)	(438,72)	(295,17)	(212,8)	(434,22)	(210,1)	(88,1)	(1,0)	(1,0)	(1,0)	(1,0)	(1,0)	(1,0)	(1,0)	
L1D -433>	(88,1)	(0,16)	(1,4)	(435,77)	(294,4)	(8,0)	(-3,12)	(210,4)	(431,2)	(4,0)	(432,0)	(3,0)	(1,0)	(1,0)	(1,0)	(1,0)	
L1D -432>	(0,5)	(88,1)	(238,3)	(1,1)	(432,2)	(-13,1)	(1,0)	(1,0)	(1,0)	(1,0)	(1,0)	(1,0)	(1,0)	(1,0)	(1,0)	(1,0)	
L1D -431>	(0,8)	(104,2)	(-2,1)	(1,72)	(431,40)	(2,1)	(294,11)	(210,6)	(435,13)	(92,1)	(88,4)	(1,0)	(1,0)	(1,0)	(1,0)	(1,0)	
L1D -430>	(1,117)	(0,12)	(206,1)	(431,1)	(261,4)	(88,2)	(121,1)	(1,0)	(1,0)	(1,0)	(1,0)	(1,0)	(1,0)	(1,0)	(1,0)	(1,0)	
L1D -429>	(1,115)	(0,8)	(450,1)	(221,1)	(8,1)	(1,0)	(1,0)	(1,0)	(1,0)	(1,0)	(1,0)	(1,0)	(1,0)	(1,0)	(1,0)	(1,0)	
L1D -428>	(1,10)	(88,1)	(8,2)	(0,3)	(1,0)	(1,0)	(1,0)	(1,0)	(1,0)	(1,0)	(1,0)	(1,0)	(1,0)	(1,0)	(1,0)	(1,0)	
L1D -427>	(1,94)	(0,15)	(8,1)	(-17,1)	(203,1)	(427,36)	(290,4)	(2,1)	(88,0)	(1,0)	(1,0)	(1,0)	(1,0)	(1,0)	(1,0)	(1,0)	
L1D -426>	(0,11)	(427,106)	(423,6)	(-3,3)	(203,1)	(1,4)	(88,1)	(426,3)	(-2,1)	(290,3)	(270,1)	(1,0)	(1,0)	(1,0)	(1,0)	(1,0)	
L1D -425>	(1,5)	(0,5)	(427,109)	(423,5)	(203,9)	(290,11)	(2,1)	(1,0)	(1,0)	(1,0)	(1,0)	(1,0)	(1,0)	(1,0)	(1,0)	(1,0)	
L1D -424>	(0,2)	(427,5)	(290,1)	(8,2)	(423,2)	(1,0)	(1,0)	(1,0)	(1,0)	(1,0)	(1,0)	(1,0)	(1,0)	(1,0)	(1,0)	(1,0)	
L1D -423>	(0,38)	(1,125)	(114,1)	(423,67)	(290,22)	(427,28)	(203,5)	(428,1)	(-4,2)	(94,1)	(1,0)	(1,0)	(1,0)	(1,0)	(1,0)	(1,0)	
L1D -422>	(1,104)	(0,3)	(27,0)	(215,0)	(1,0)	(1,0)	(1,0)	(1,0)	(1,0)	(1,0)	(1,0)	(1,0)	(1,0)	(1,0)	(1,0)	(1,0)	
L1D -421>	(0,1)	(1,105)	(270,0)	(335,0)	(16,0)	(1,0)	(1,0)	(1,0)	(1,0)	(1,0)	(1,0)	(1,0)	(1,0)	(1,0)	(1,0)	(1,0)	
L1D -420>	(1,14)	(0,13)	(-3,13)	(420,1)	(79,1)	(3,2)	(6,1)	(1,0)	(1,0)	(1,0)	(1,0)	(1,0)	(1,0)	(1,0)	(1,0)	(1,0)	
L1D -419>	(1,122)	(0,22)	(419,24)	(286,9)	(415,1)	(1,0)	(1,0)	(1,0)	(1,0)	(1,0)	(1,0)	(1,0)	(1,0)	(1,0)	(1,0)	(1,0)	
L1D -418>	(-1,1)	(18,1)	(419,116)	(0,3)	(1,5)	(415,2)	(8,1)	(1,0)	(1,0)	(1,0)	(1,0)	(1,0)	(1,0)	(1,0)	(1,0)	(1,0)	
L1D -417>	(41,1)	(123,1)	(122,2)	(419,107)	(286,24)	(196,7)	(1,4)	(8,1)	(415,6)	(0,1)	(113,3)	(1,0)	(1,0)	(1,0)	(1,0)	(1,0)	
L1D -416>	(0,5)	(202,2)	(400,2)	(260,6)	(209,9)	(416,18)	(392,2)	(204,3)	(252,4)	(188,1)	(128,2)	(5,3)	(415,8)	(1,2)	(384,3)	(414,1)	
L1D -415>	(0,38)	(1,73)	(415,84)	(419,22)	(286,28)	(88,1)	(122,2)	(-1,1)	(120,1)	(268,1)	(115,1)	(2,1)	(196,1)	(1,0)	(1,0)	(1,0)	
L1D -414>	(1,114)	(0,4)	(105,1)	(121,0)	(319,0)	(1,0)	(1,0)	(1,0)	(1,0)	(1,0)	(1,0)	(1,0)	(1,0)	(1,0)	(1,0)	(1,0)	
L1D -413>	(1,124)	(0,3)	(79,0)	(-8,0)	(1,0)	(1,0)	(1,0)	(1,0)	(1,0)	(1,0)	(1,0)	(1,0)	(1,0)	(1,0)	(1,0)	(1,0)	
L1D -412>	(1,7)	(0,17)	(-3,14)	(270,4)	(222,1)	(1,0)	(1,0)	(1,0)	(1,0)	(1,0)	(1,0)	(1,0)	(1,0)	(1,0)	(1,0)	(1,0)	
L1D -411>	(0,42)	(1,109)	(270,1)	(-3,3)	(411,18)	(221,2)	(282,7)	(229,1)	(1,0)	(1,0)	(1,0)	(1,0)	(1,0)	(1,0)	(1,0)	(1,0)	
L1D -410>	(0,3)	(88,1)	(411,105)	(1,1)	(407,1)	(440,1)	(189,1)	(1,0)	(1,0)	(1,0)	(1,0)	(1,0)	(1,0)	(1,0)	(1,0)	(1,0)	
L1D -409>	(261,1)	(0,6)	(411,43)	(-64,28)	(282,6)	(-6,1)	(197,1)	(1,1)	(407,1)	(189,1)	(1,0)	(1,0)	(1,0)	(1,0)	(1,0)	(1,0)	
L1D -408>	(407,4)	(88,2)	(206,5)	(0,1)	(252,1)	(3,1)	(-9,1)	(-2,1)	(113,1)	(411,2)	(440,1)	(104,3)	(384,1)	(282,1)	(1,0)	(1,0)	
L1D -407>	(0,21)	(1,42)	(407,67)	(377,3)	(411,15)	(282,5)	(94,5)	(197,1)	(171,1)	(349,1)	(8,1)	(499,1)	(28,2)	(412,1)	(91,1)	(4,2)	
L1D -406>	(9,21)	(1,124)	(79,1)	(278,1)	(219,1)	(34,1)	(0,3)	(426,1)	(311,2)	(88,1)	(1,0)	(1,0)	(1,0)	(1,0)	(1,0)	(1,0)	
L1D -405>	(1,122)	(311,7)	(255,1)	(191,1)	(261,1)	(0,2)	(395,5)	(316,0)	(325,0)	(334,0)	(297,0)	(296,0)	(273,0)	(305,0)	(304,0)	(282,0)	
L1D -404>	(0,1)	(-64,1)	(1,10)	(16,2)	(9,75)	(313,1)	(1,0)	(1,0)	(1,0)	(1,0)	(1,0)	(1,0)	(1,0)	(1,0)	(1,0)	(1,0)	
L1D -403>	(93,33)	(0,9)	(97,37)	(105,35)	(92,33)	(266,9)	(1,61)	(104,62)	(403,11)	(113,30)	(90,30)	(250,52)	(121,14)	(114,20)	(102,1)	(117,21)	
L1D -402>	(261,5)	(93,12)	(105,16)	(104,17)	(92,10)	(113,12)	(264,9)	(90,3)	(117,6)	(265,7)	(114,1)	(97,15)	(95,6)	(88,3)	(121,14)	(403,78)	
L1D -401>	(318,2)	(399,1)	(88,2)	(396,1)	(260,2)	(398,2)	(-26,1)	(0,1)	(122,1)	(11,1)	(196,1)	(403,22)	(121,1)	(1,2)	(197,1)	(8,3)	
L1D -400>	(0,2)	(-64,3)	(254,1)	(400,4)	(464,1)	(121,2)	(112,4)	(122,27)	(384,2)	(105,1)	(363,2)	(44,2)	(399,1)	(278,1)	(1,0)	(1,0)	
L1D -399>	(0,6)	(1,28)	(399,36)	(250,7)	(120,3)	(403,13)	(392,2)	(278,4)	(90,8)	(401,1)	(396,1)	(3,2)	(92,2)	(93,1)	(104,3)	(265,5)	
L1D -398>	(93,10)	(97,20)	(264,5)	(0,40)	(197,4)	(121,24)	(92,15)	(265,2)	(1,71)	(8,4)	(-3,23)	(3,4)	(113,12)	(104,36)	(261,3)	(250,16)	
L1D -397>	(93,10)	(191,1)	(183,1)	(1,104)	(10,1)	(91,1)	(448,1)	(0,2)	(-26,1)	(1,0)	(1,0)	(1,0)	(1,0)	(1,0)	(1,0)	(1,0)	
L1D -396>	(0,4)	(88,2)	(-26,1)	(1,3)	(8,1)	(3,1)	(271,1)	(-9,1)	(-64,3)	(112,1)	(250,1)	(197,1)	(1,0)	(1,0)	(1,0)	(1,0)	
L1D -395>	(-1,2)	(264,1)	(101,1)	(0,2)	(1,21)	(-64,3)	(104,3)	(25,2)	(265,1)	(250,1)	(403,1)	(395,18)	(1,0)	(1,0)	(1,0)	(1,0)	
L1D -394>	(1,1)	(3,3)	(200,3)	(29,1)	(395,31)	(403,1)	(401,1)	(202,1)	(396,2)	(186,1)	(175,2)	(1,0)	(1,0)	(1,0)	(1,0)	(1,0)	
L1D -393>	(-64,5)	(393,10)	(-3,1)	(255,1)	(8,4)	(0,2)	(128,1)	(197,5)	(395,15)	(391,3)	(-68,1)	(204,1)	(205,1)	(238,1)	(1,0)	(1,0)	
L1D -392>	(183,1)	(392,3)	(-1,1)	(-8,3)	(67,1)	(238,1)	(395,1)	(440,8)	(121,1)	(391,1)	(1,0)	(1,0)	(1,0)	(1,0)	(1,0)	(1,0)	
L1D -391>	(361,3)	(197,2)	(255,3)	(333,2)	(476,2)	(395,5)	(391,12)	(78,10)	(460,2)	(332,2)	(1,16)	(-64,10)	(11,4)	(175,1)	(393,1)	(0,1)	
L1D -390>	(0,3)	(-64,1)	(183,2)	(255,1)	(1,21)	(1,0)	(1,0)	(1,0)	(1,0)	(1,0)	(1,0)	(1,0)	(1,0)	(1,0)	(1,0)	(1,0)	
L1D -389>	(-64,9)	(1,57)	(88,1)	(0,3)	(78,1)	(205,1)	(470,1)	(385,3)	(2,2)	(261,4)	(183,1)	(197,2)	(313,1)	(190,1)	(300,1)	(-55,1)	
L1D -388>	(388,1)	(-8,2)	(0,1)	(-16,5)	(462,1)	(-72,1)	(56,1)	(-1,1)	(8,1)	(-3,6)	(1,1)	(1,0)	(1,0)	(1,0)	(1,0)	(1,0)	
L1D -387>	(2,1)	(387,6)	(192,1)	(1,13)	(0,1)	(1,0)	(1,0)	(1,0)	(1,0)	(1,0)	(1,0)	(1,0)	(1,0)	(1,0)	(1,0)	(1,0)	
L1D -386>	(1,2)	(2,2)	(-64,9)	(208,1)	(121,1)	(387,16)	(0,1)	(296,1)	(-3,1)	(3,1)	(1,0)	(1,0)	(1,0)	(1,0)	(1,0)	(1,0)	
L1D -385>	(0,6)	(-64,5)	(113,1)	(2,2)	(385,2)	(51,1)	(8,30)	(122,12)	(-2,2)	(-67,1)	(383,2)	(387,3)	(336,1)	(313,2)	(404,1)	(197,3)	
L1D -384>	(121,10)	(0,6)	(379,1)	(-64,4)	(384,95)	(400,10)	(319,1)	(392,6)	(113,1)	(111,1)	(416,26)	(112,4)	(-72,5)	(448,2)	(440,3)	(105,1)	
L1D -383>	(260,1)	(383,13)	(120,2)	(0,2)	(-64,7)	(8,1)	(121,1)	(188,1)	(288,2)	(5,2)	(394,1)	(401,1)	(387,2)	(1,2)	(1,0)	(1,0)	
L1D -382>	(0,1)	(377,2)	(387,2)	(271,1)	(120,1)	(197,2)	(419,6)	(183,1)	(1,20)	(1,0)	(1,0)	(1,0)	(1,0)	(1,0)	(1,0)	(1,0)	
L1D -381>	(-64,3)	(197,2)	(8,2)	(1,0)	(1,0)	(1,0)	(1,0)	(1,0)	(1,0)	(1,0)	(1,0)	(1,0)	(1,0)	(1,0)	(1,0)	(1,0)	
L1D -380>	(0,2)	(-64,2)	(144,1)	(380,2)	(55,28)	(252,2)	(-16,2)	(296,2)	(-72,2)	(238,2)	(430,1)	(348,1)	(-15,1)	(270,1)	(312,1)	(3,1)	
L1D -379>	(1,3)	(286,1)	(-64,1)	(-80,1)	(0,5)	(267,2)	(197,2)	(122,1)	(379,2)	(270,1)	(363,3)	(1,0)	(1,0)	(1,0)	(1,0)	(1,0)	
L1D -378>	(-48,4)	(3,6)	(115,4)	(293,2)	(380,16)	(186,1)	(16,7)	(0,4)	(113,1)	(-64,3)	(-32,4)	(8,1)	(182,1)	(378,11)	(63,1)	(200,11)	
L1D -377>	(0,11)	(114,7)	(312,2)	(126,2)	(5,8)	(-64,17)	(313,3)	(377,39)	(396,1)	(60,1)	(344,1)	(1,1)	(8,9)	(197,29)	(282,1)	(286,1)	
L1D -376>	(113,5)	(51,12)	(368,2)	(345,4)	(8,26)	(16,6)	(0,7)	(337,3)	(376,1)	(440,9)	(55,8)	(245,3)	(332,1)	(242,1)	(116,1)	(-12,2)	
L1D -375>	(347,4)	(296,3)	(92,2)	(374,1)	(95,2)	(375,12)	(60,3)	(-3,2)	(-9,1)	(372,1)	(8,1)	(-55,3)	(197,7)	(-128,6)	(183,4)	(97,1)	
L1D -374>	(-64,1)	(8,3)	(246,1)	(0,1)	(271,2)	(96,9)	(407,1)	(411,3)	(1,0)	(1,0)	(1,0)	(1,0)	(1,0)	(1,0)	(1,0)	(1,0)	
L1D -373>	(-64,21)	(79,1)	(16,2)	(243,2)	(271,14)	(394,1)	(259,1)	(252,1)	(244,1)	(284,1)	(250,1)	(302,1)	(264,1)	(275,1)	(265,1)	(241,1)	
L1D -372>	(0,17)	(372,2)	(55,1)	(468,1)	(-72,5)	(1,0)	(1,0)	(1,0)	(1,0)	(1,0)	(1,0)	(1,0)	(1,0)	(1,0)	(1,0)	(1,0)	
L1D -371>	(176,1)	(174,1)	(8,5)	(16,3)	(-64,1)	(-8,2)	(1,0)	(1,0)	(1,0)	(1,0)	(1,0)	(1,0)	(1,0)	(1,0)	(1,0)	(1,0)	
L1D -370>	(0,1)	(8,9)	(207,1)	(1,1)	(1,0)	(1,0)	(1,0)	(1,0)	(1,0)	(1,0)	(1,0)	(1,0)	(1,0)	(1,0)	(1,0)	(1,0)	
L1D -369>	(106,1)	(-64,6)	(277,1)	(274,1)	(8,7)	(16,1)	(160,1)	(157,2)	(367,1)	(1,0)	(1,0)	(1,0)	(1,0)	(1,0)	(1,0)	(1,0)	
L1D -368>	(0,1)	(437,2)	(368,30)	(361,16)	(438,24)	(8,3)	(440,1)	(439,6)	(-64,4)	(55,17)	(432,1)	(253,2)	(252,5)	(245,1)	(309,2)	(259,2)	
L1D -367>	(104,2)	(-64,20)	(1,1)	(368,2)	(0,1)	(1,0)	(1,0)	(1,0)	(1,0)	(1,0)	(1,0)	(1,0)	(1,0)	(1,0)	(1,0)	(1,0)	
L1D -366>	(331,2)	(9,19)	(8,1)	(88,1)	(-64,5)	(241,1)	(1,0)	(1,0)	(1,0)	(1,0)	(1,0)	(1,0)	(1,0)	(1,0)	(1,0)	(1,0)	
L1D -365>	(-64,57)	(1,0)	(1,0)	(1,0)	(1,0)	(1,0)	(1,0)	(1,0)	(1,0)	(1,0)	(1,0)	(1,0)	(1,0)	(1,0)	(1,0)	(1,0)	
L1D -364>	(-64,73)	(8,1)	(7,1)	(316,2)	(5,47)	(364,2)	(49,4)	(9,44)	(227,1)	(236,3)	(365,1)	(44,1)	(1,0)	(1,0)	(1,0)	(1,0)	
L1D -363>	(-1,8)	(-64,1)	(9,41)	(-8,1)	(1,0)	(1,0)	(1,0)	(1,0)	(1,0)	(1,0)	(1,0)	(1,0)	(1,0)	(1,0)	(1,0)	(1,0)	
L1D -362>	(-64,8)	(0,2)	(464,1)	(331,1)	(1,0)	(1,0)	(1,0)	(1,0)	(1,0)	(1,0)	(1,0)	(1,0)	(1,0)	(1,0)	(1,0)	(1,0)	
L1D -361>	(0,13)	(-64,22)	(331,5)	(-16,1)	(116,1)	(-8,3)	(361,5)	(-2,1)	(88,5)	(-1,2)	(-87,1)	(330,1)	(1,0)	(1,0)	(1,0)	(1,0)	
L1D -360>	(1,3)	(352,1)	(167,1)	(-128,13)	(88,1)	(-64,7)	(360,2)	(361,2)	(72,1)	(1,0)	(1,0)	(1,0)	(1,0)	(1,0)	(1,0)	(1,0)	
L1D -359>	(0,7)	(1,4)	(331,5)	(73,1)	(76,4)	(93,3)	(275,1)	(267,1)	(-2,1)	(-3,54)	(-128,2)	(8,2)	(-64,1)	(359,2)	(3,3)	(1,0)	
L1D -358>	(172,1)	(0,10)	(-3,31)	(-64,1)	(1,2)	(275,1)	(3,6)	(243,1)	(128,6)	(80,2)	(-8,1)	(1,0)	(1,0)	(1,0)	(1,0)	(1,0)	
L1D -357>	(0,1)	(-128,4)	(1,1)	(357,1)	(79,2)	(1,0)	(1,0)	(1,0)	(1,0)	(1,0)	(1,0)	(1,0)	(1,0)	(1,0)	(1,0)	(1,0)	
L1D -356>	(0,4)	(1,3)	(88,3)	(79,1)	(356,2)	(-39,2)	(5,3)	(-1,1)	(1,0)	(1,0)	(1,0)	(1,0)	(1,0)	(1,0)	(1,0)	(1,0)	
L1D -355>	(1,15)	(0,12)	(88,8)	(3,3)	(438,2)	(2,1)	(-16,5)	(341,4)	(8,2)	(1,0)	(1,0)	(1,0)	(1,0)	(1,0)	(1,0)	(1,0)	
L1D -354>	(1,103)	(0,46)	(-64,6)	(88,52)	(2,1)	(13,2)	(1,0)	(1,0)	(1,0)	(1,0)	(1,0)	(1,0)	(1,0)	(1,0)	(1,0)	(1,0)	
L1D -353>	(0,39)	(1,58)	(176,0)	(88,96)	(-1,7)	(264,1)	(352,0)	(1,0)	(1,0)	(1,0)	(1,0)	(1,0)	(1,0)	(1,0)	(1,0)	(1,0)	
L1D -352>	(0,100)	(-64,0)	(88,47)	(-1,0)	(439,0)	(360,0)	(1,0)	(1,0)	(1,0)	(1,0)	(1,0)	(1,0)	(1,0)	(1,0)	(1,0)	(1,0)	
L1D -351>	(0,47)	(1,5)	(88,84)	(87,0)	(-128,0)	(121,0)	(122,0)	(-1,8)	(1,0)	(1,0)	(1,0)	(1,0)	(1,0)	(1,0)	(1,0)	(1,0)	
L1D -350>	(322,119)	(-79,0)	(0,0)	(1,0)	(1,0)	(1,0)	(1,0)	(1,0)	(1,0)	(1,0)	(1,0)	(1,0)	(1,0)	(1,0)	(1,0)	(1,0)	
L1D -349>	(-128,3)	(66,1)	(321,1)	(79,1)	(9,1)	(244,1)	(225,1)	(17,1)	(1,1)	(1,0)	(1,0)	(1,0)	(1,0)	(1,0)	(1,0)	(1,0)	
L1D -348>	(-8,1)	(-32,1)	(122,1)	(1,1)	(1,0)	(1,0)	(1,0)	(1,0)	(1,0)	(1,0)	(1,0)	(1,0)	(1,0)	(1,0)	(1,0)	(1,0)	
L1D -347>	(319,26)	(347,2)	(262,1)	(252,1)	(-64,1)	(270,1)	(1,0)	(1,0)	(1,0)	(1,0)	(1,0)	(1,0)	(1,0)	(1,0)	(1,0)	(1,0)	
L1D -346>	(466,22)	(-1,1)	(-64,2)	(1,0)	(1,0)	(1,0)	(1,0)	(1,0)	(1,0)	(1,0)	(1,0)	(1,0)	(1,0)	(1,0)	(1,0)	(1,0)	
L1D -345>	(-64,2)	(275,2)	(-16,3)	(243,11)	(274,1)	(-3,2)	(423,1)	(0,2)	(165,1)	(88,1)	(-128,1)	(350,2)	(324,2)	(297,2)	(1,0)	(1,0)	
L1D -344>	(-16,5)	(0,4)	(-64,2)	(-128,3)	(-8,8)	(363,1)	(88,1)	(344,1)	(-7,5)	(106,1)	(458,1)	(1,0)	(1,0)	(1,0)	(1,0)	(1,0)	
L1D -343>	(275,23)	(8,3)	(274,1)	(277,1)	(-128,9)	(3,1)	(0,1)	(363,2)	(223,3)	(1,0)	(1,0)	(1,0)	(1,0)	(1,0)	(1,0)	(1,0)	
L1D -342>	(275,1)	(363,1)	(-1,1)	(0,1)	(-128,1)	(1,0)	(1,0)	(1,0)	(1,0)	(1,0)	(1,0)	(1,0)	(1,0)	(1,0)	(1,0)	(1,0)	
L1D -341>	(88,1)	(0,1)	(-64,2)	(1,0)	(1,0)	(1,0)	(1,0)	(1,0)	(1,0)	(1,0)	(1,0)	(1,0)	(1,0)	(1,0)	(1,0)	(1,0)	
L1D -340>	(-128,2)	(0,2)	(-64,3)	(454,2)	(453,2)	(1,0)	(1,0)	(1,0)	(1,0)	(1,0)	(1,0)	(1,0)	(1,0)	(1,0)	(1,0)	(1,0)	
L1D -339>	(286,22)	(276,91)	(342,1)	(-64,1)	(258,2)	(1,0)	(1,0)	(1,0)	(1,0)	(1,0)	(1,0)	(1,0)	(1,0)	(1,0)	(1,0)	(1,0)	
L1D -338>	(275,7)	(244,2)	(-8,1)	(24,4)	(146,1)	(-128,2)	(458,4)	(466,1)	(251,1)	(247,1)	(148,2)	(338,3)	(424,2)	(1,0)	(1,0)	(1,0)	
L1D -337>	(1,11)	(4,1)	(243,5)	(274,2)	(275,39)	(283,2)	(242,2)	(337,4)	(316,4)	(361,1)	(424,1)	(3,1)	(1,0)	(1,0)	(1,0)	(1,0)	
L1D -336>	(275,2)	(-128,14)	(1,1)	(471,1)	(122,1)	(-64,5)	(352,1)	(148,1)	(52,1)	(326,4)	(164,5)	(1,0)	(1,0)	(1,0)	(1,0)	(1,0)	
L1D -335>	(-64,25)	(15,14)	(-128,7)	(112,3)	(344,1)	(1,0)	(1,0)	(1,0)	(1,0)	(1,0)	(1,0)	(1,0)	(1,0)	(1,0)	(1,0)	(1,0)	
L1D -334>	(334,3)	(270,2)	(339,1)	(283,2)	(286,1)	(331,1)	(122,1)	(362,1)	(-11,7)	(-64,6)	(115,1)	(337,1)	(1,0)	(1,0)	(1,0)	(1,0)	
L1D -333>	(9,3)	(4,2)	(66,1)	(5,1)	(0,1)	(333,2)	(1,0)	(1,0)	(1,0)	(1,0)	(1,0)	(1,0)	(1,0)	(1,0)	(1,0)	(1,0)	
L1D -332>	(286,6)	(1,7)	(-128,8)	(330,19)	(4,5)	(122,1)	(332,3)	(1,0)	(1,0)	(1,0)	(1,0)	(1,0)	(1,0)	(1,0)	(1,0)	(1,0)	
L1D -331>	(332,7)	(331,10)	(322,8)	(-128,14)	(330,8)	(-64,10)	(0,4)	(326,28)	(367,22)	(366,15)	(245,12)	(163,4)	(196,85)	(43,3)	(164,9)	(124,1)	
L1D -330>	(286,64)	(229,2)	(450,1)	(276,99)	(268,1)	(0,1)	(330,1)	(126,1)	(124,16)	(83,15)	(41,1)	(164,2)	(458,1)	(1,0)	(1,0)	(1,0)	
L1D -329>	(41,94)	(4,5)	(40,16)	(203,0)	(163,0)	(9,39)	(0,0)	(239,0)	(139,0)	(-2,0)	(130,0)	(1,0)	(1,0)	(1,0)	(1,0)	(1,0)	
L1D -328>	(1,21)	(7,14)	(-9,1)	(-64,7)	(122,2)	(4,25)	(-128,10)	(10,1)	(5,2)	(9,3)	(2,3)	(312,1)	(328,1)	(-6,4)	(1,0)	(1,0)	
L1D -327>	(0,2)	(-8,1)	(1,1)	(8,4)	(-128,8)	(-64,3)	(78,1)	(7,58)	(-1,8)	(265,1)	(400,1)	(5,41)	(384,1)	(448,1)	(1,0)	(1,0)	
L1D -326>	(-128,12)	(2,5)	(123,1)	(120,1)	(0,1)	(-64,3)	(4,2)	(459,1)	(-52,8)	(-4,1)	(-51,2)	(-3,1)	(6,1)	(1,0)	(1,0)	(1,0)	
L1D -325>	(41,16)	(5,68)	(40,1)	(-55,0)	(-11,20)	(9,1)	(11,0)	(-51,0)	(123,0)	(1,0)	(1,0)	(1,0)	(1,0)	(1,0)	(1,0)	(1,0)	
L1D -324>	(-1,0)	(9,103)	(-9,1)	(4,13)	(40,29)	(-4,0)	(122,0)	(1,0)	(1,0)	(1,0)	(1,0)	(1,0)	(1,0)	(1,0)	(1,0)	(1,0)	
L1D -323>	(9,69)	(-64,0)	(4,0)	(88,0)	(314,0)	(-10,9)	(44,9)	(0,0)	(5,6)	(122,0)	(315,0)	(416,0)	(120,0)	(1,1)	(1,0)	(1,0)	
L1D -322>	(5,49)	(323,46)	(41,33)	(267,5)	(67,3)	(2,1)	(-3,16)	(123,3)	(-63,2)	(315,5)	(322,3)	(0,44)	(350,6)	(96,2)	(128,5)	(409,3)	
L1D -321>	(16,40)	(5,73)	(4,5)	(8,2)	(41,19)	(-1,7)	(1,17)	(2,2)	(319,1)	(-64,19)	(321,6)	(66,2)	(349,1)	(454,1)	(0,2)	(499,1)	
L1D -320>	(-64,0)	(40,15)	(16,82)	(4,0)	(2,0)	(1,9)	(107,0)	(114,0)	(9,0)	(122,0)	(347,2)	(5,0)	(41,0)	(1,0)	(1,0)	(1,0)	
L1D -319>	(347,127)	(105,0)	(9,4)	(0,1)	(446,0)	(1,0)	(1,0)	(1,0)	(1,0)	(1,0)	(1,0)	(1,0)	(1,0)	(1,0)	(1,0)	(1,0)	
L1D -318>	(-64,3)	(326,0)	(91,0)	(-1,0)	(9,102)	(4,0)	(24,0)	(0,0)	(317,0)	(-14,0)	(1,0)	(1,0)	(1,0)	(1,0)	(1,0)	(1,0)	
L1D -317>	(-9,1)	(0,1)	(226,1)	(318,1)	(317,8)	(155,1)	(7,1)	(-15,4)	(2,10)	(133,1)	(32,1)	(330,1)	(-64,3)	(4,6)	(-51,1)	(1,0)	
L1D -316>	(0,3)	(-11,9)	(-6,4)	(316,7)	(238,1)	(-80,1)	(122,20)	(115,5)	(41,31)	(8,1)	(64,1)	(479,1)	(3,2)	(192,1)	(213,1)	(-7,3)	
L1D -315>	(316,1)	(-64,5)	(0,5)	(88,1)	(121,3)	(4,1)	(113,1)	(434,1)	(-13,1)	(285,2)	(128,1)	(315,2)	(1,0)	(1,0)	(1,0)	(1,0)	
L1D -314>	(-5,2)	(4,1)	(-64,47)	(0,1)	(240,1)	(-30,1)	(234,1)	(-29,1)	(120,2)	(8,1)	(88,2)	(314,4)	(316,1)	(-4,1)	(1,0)	(1,0)	
L1D -313>	(-5,13)	(313,10)	(-3,3)	(8,1)	(445,1)	(5,1)	(0,1)	(457,1)	(197,10)	(414,1)	(-4,4)	(-128,3)	(377,1)	(-64,1)	(1,0)	(1,0)	
L1D -312>	(312,28)	(320,3)	(440,2)	(-64,30)	(6,2)	(-7,12)	(-8,1)	(-128,3)	(243,3)	(259,1)	(0,1)	(1,0)	(1,0)	(1,0)	(1,0)	(1,0)	
L1D -311>	(32,19)	(-8,1)	(-64,28)	(3,27)	(255,3)	(60,2)	(311,1)	(330,6)	(113,2)	(8,1)	(197,1)	(14,1)	(-128,8)	(1,0)	(1,0)	(1,0)	
L1D -310>	(91,5)	(1,2)	(199,2)	(82,3)	(168,8)	(-9,3)	(4,2)	(3,3)	(12,3)	(-10,1)	(182,1)	(-64,2)	(330,2)	(147,1)	(133,1)	(151,1)	
L1D -309>	(457,21)	(-64,52)	(12,2)	(133,2)	(-9,14)	(308,3)	(-8,2)	(199,16)	(330,4)	(197,2)	(2,2)	(180,1)	(179,1)	(220,1)	(186,1)	(208,1)	
L1D -308>	(106,1)	(192,1)	(5,6)	(372,1)	(300,1)	(0,2)	(-7,1)	(16,2)	(309,1)	(101,8)	(104,3)	(165,3)	(95,2)	(109,2)	(111,1)	(83,2)	
L1D -307>	(3,2)	(440,3)	(307,2)	(-64,2)	(18,2)	(335,1)	(1,0)	(1,0)	(1,0)	(1,0)	(1,0)	(1,0)	(1,0)	(1,0)	(1,0)	(1,0)	
L1D -306>	(24,19)	(163,1)	(0,6)	(-64,1)	(3,3)	(470,1)	(93,2)	(148,1)	(299,1)	(306,1)	(104,1)	(1,0)	(1,0)	(1,0)	(1,0)	(1,0)	
L1D -305>	(457,10)	(-64,46)	(4,5)	(0,2)	(-11,5)	(264,3)	(275,3)	(20,1)	(305,1)	(272,2)	(24,21)	(-8,2)	(7,4)	(409,6)	(26,2)	(432,3)	
L1D -304>	(3,1)	(0,5)	(7,5)	(-14,1)	(100,1)	(-12,4)	(304,1)	(-128,50)	(4,1)	(-64,4)	(9,1)	(374,1)	(357,1)	(74,1)	(1,0)	(1,0)	
L1D -303>	(0,7)	(1,1)	(24,2)	(381,1)	(322,2)	(-64,10)	(3,1)	(27,2)	(-16,2)	(2,1)	(32,2)	(-5,1)	(1,0)	(1,0)	(1,0)	(1,0)	
L1D -302>	(310,1)	(1,4)	(322,1)	(7,1)	(-64,6)	(-1,1)	(302,4)	(159,6)	(-2,9)	(409,17)	(-128,5)	(301,1)	(384,1)	(416,1)	(118,1)	(0,1)	
L1D -301>	(-64,43)	(24,14)	(457,3)	(-8,21)	(449,4)	(9,8)	(-18,3)	(6,1)	(-4,11)	(64,1)	(203,1)	(57,1)	(-1,5)	(0,9)	(2,1)	(7,1)	
L1D -300>	(-64,7)	(-4,5)	(-8,2)	(0,13)	(300,9)	(94,1)	(183,11)	(66,2)	(57,2)	(1,1)	(9,2)	(197,3)	(192,3)	(157,4)	(75,1)	(-144,1)	
L1D -299>	(88,1)	(0,1)	(7,1)	(246,1)	(335,1)	(-128,1)	(-76,1)	(121,2)	(448,1)	(299,1)	(-64,2)	(14,1)	(1,0)	(1,0)	(1,0)	(1,0)	
L1D -298>	(1,3)	(297,1)	(-24,9)	(113,1)	(-13,21)	(6,1)	(-64,1)	(15,2)	(298,2)	(1,0)	(1,0)	(1,0)	(1,0)	(1,0)	(1,0)	(1,0)	
L1D -297>	(18,2)	(1,63)	(0,26)	(-64,8)	(457,4)	(449,2)	(264,2)	(275,1)	(89,1)	(272,1)	(-128,3)	(326,1)	(183,1)	(-79,1)	(6,2)	(297,2)	
L1D -296>	(-4,3)	(296,4)	(0,7)	(-64,39)	(18,1)	(-128,2)	(316,1)	(1,0)	(1,0)	(1,0)	(1,0)	(1,0)	(1,0)	(1,0)	(1,0)	(1,0)	
L1D -295>	(0,3)	(-7,2)	(-16,3)	(454,1)	(355,1)	(-128,9)	(2,2)	(461,1)	(337,2)	(361,2)	(139,1)	(56,1)	(1,0)	(1,0)	(1,0)	(1,0)	
L1D -294>	(334,7)	(12,2)	(291,37)	(27,3)	(255,2)	(313,1)	(294,1)	(179,1)	(211,1)	(-64,2)	(-24,5)	(9,1)	(15,40)	(287,1)	(8,2)	(169,2)	
L1D -293>	(457,8)	(326,15)	(264,10)	(459,3)	(313,2)	(317,1)	(272,3)	(458,4)	(293,4)	(330,1)	(275,1)	(288,7)	(165,2)	(197,18)	(337,6)	(361,17)	
L1D -292>	(325,2)	(337,4)	(451,2)	(3,6)	(292,18)	(281,2)	(64,1)	(288,2)	(317,3)	(361,13)	(-9,1)	(326,9)	(246,4)	(459,7)	(344,1)	(-2,1)	
L1D -291>	(294,71)	(2,0)	(263,0)	(66,0)	(57,0)	(48,0)	(-9,0)	(458,1)	(280,0)	(1,0)	(1,0)	(1,0)	(1,0)	(1,0)	(1,0)	(1,0)	
L1D -290>	(1,3)	(-8,9)	(3,1)	(263,10)	(0,5)	(275,1)	(330,1)	(331,2)	(197,6)	(342,3)	(290,1)	(377,1)	(-9,2)	(470,1)	(350,1)	(1,0)	
L1D -289>	(41,47)	(183,0)	(330,2)	(9,107)	(-8,0)	(316,0)	(349,0)	(5,0)	(264,0)	(296,0)	(267,0)	(40,2)	(268,0)	(272,0)	(288,0)	(263,0)	
L1D -288>	(4,7)	(0,2)	(-128,7)	(289,3)	(9,2)	(465,4)	(257,2)	(281,10)	(8,15)	(40,23)	(-64,2)	(263,2)	(249,2)	(288,19)	(250,2)	(256,6)	
L1D -287>	(1,1)	(453,5)	(357,1)	(-64,2)	(-128,0)	(3,46)	(8,116)	(122,0)	(461,3)	(272,0)	(0,2)	(2,1)	(197,2)	(4,0)	(1,0)	(1,0)	
L1D -286>	(393,2)	(5,4)	(-11,18)	(7,3)	(-64,2)	(105,1)	(8,1)	(255,1)	(-9,11)	(-7,55)	(-16,6)	(60,3)	(285,3)	(32,1)	(9,14)	(-5,4)	
L1D -285>	(4,5)	(41,2)	(197,3)	(98,2)	(285,7)	(449,2)	(358,1)	(32,1)	(337,1)	(9,4)	(24,1)	(2,1)	(-32,1)	(-9,4)	(275,1)	(465,2)	
L1D -284>	(250,2)	(40,33)	(9,101)	(4,6)	(288,5)	(284,3)	(281,2)	(252,0)	(289,0)	(249,1)	(0,0)	(1,0)	(1,0)	(1,0)	(1,0)	(1,0)	
L1D -283>	(4,93)	(0,0)	(96,0)	(9,0)	(-128,0)	(-93,0)	(273,0)	(1,0)	(1,0)	(1,0)	(1,0)	(1,0)	(1,0)	(1,0)	(1,0)	(1,0)	
L1D -282>	(255,3)	(41,19)	(5,2)	(197,15)	(465,2)	(0,20)	(1,16)	(286,2)	(282,6)	(272,2)	(304,2)	(342,4)	(274,2)	(96,1)	(313,2)	(257,2)	
L1D -281>	(42,44)	(-128,9)	(41,13)	(256,3)	(449,5)	(265,6)	(-29,1)	(321,2)	(453,3)	(304,2)	(260,4)	(275,11)	(274,7)	(268,17)	(292,6)	(290,2)	
L1D -280>	(-26,1)	(41,106)	(54,0)	(-128,0)	(-64,0)	(50,0)	(40,0)	(42,1)	(284,0)	(-1,0)	(1,0)	(1,0)	(1,0)	(1,0)	(1,0)	(1,0)	
L1D -279>	(256,23)	(0,9)	(267,14)	(453,33)	(4,17)	(197,7)	(-3,6)	(-128,9)	(40,14)	(-32,3)	(274,14)	(-121,1)	(257,5)	(252,3)	(-17,2)	(255,17)	
L1D -278>	(1,3)	(0,64)	(-2,3)	(103,1)	(-144,1)	(88,1)	(-128,1)	(-32,1)	(254,2)	(471,3)	(-117,2)	(396,1)	(-64,3)	(263,1)	(246,1)	(379,1)	
L1D -277>	(241,2)	(-5,2)	(368,13)	(326,4)	(360,2)	(365,3)	(275,4)	(10,1)	(386,1)	(0,7)	(-15,3)	(-72,1)	(146,1)	(272,1)	(259,1)	(277,43)	
L1D -276>	(-64,9)	(104,6)	(485,2)	(276,66)	(360,3)	(89,17)	(281,2)	(72,1)	(24,1)	(459,1)	(310,2)	(361,10)	(256,4)	(349,1)	(272,1)	(326,1)	
L1D -275>	(36,20)	(350,4)	(274,4)	(343,12)	(-64,4)	(307,3)	(437,1)	(317,3)	(482,2)	(361,44)	(0,41)	(368,7)	(330,15)	(41,14)	(326,5)	(459,3)	
L1D -274>	(276,9)	(-64,2)	(326,4)	(0,12)	(-9,4)	(-128,3)	(-2,3)	(309,10)	(360,1)	(249,4)	(1,5)	(16,1)	(274,1)	(-13,2)	(-5,1)	(462,1)	
L1D -273>	(1,30)	(274,2)	(241,3)	(273,2)	(59,2)	(465,4)	(256,3)	(266,2)	(290,7)	(259,2)	(-64,1)	(249,1)	(-8,1)	(475,1)	(0,2)	(272,5)	
L1D -272>	(0,29)	(256,3)	(252,3)	(1,43)	(16,3)	(-64,9)	(273,1)	(272,9)	(-128,12)	(292,3)	(288,2)	(264,28)	(260,13)	(-26,2)	(276,3)	(268,10)	
L1D -271>	(264,0)	(1,0)	(263,1)	(428,0)	(41,71)	(54,3)	(64,0)	(50,1)	(16,0)	(272,0)	(270,0)	(122,0)	(437,5)	(271,0)	(-64,2)	(2,0)	
L1D -270>	(0,45)	(-3,3)	(-14,0)	(-64,17)	(122,0)	(-4,2)	(1,96)	(-128,7)	(16,6)	(270,3)	(-22,0)	(-9,21)	(271,1)	(462,2)	(2,3)	(-5,1)	
L1D -269>	(1,5)	(384,6)	(8,1)	(466,2)	(468,3)	(88,1)	(-4,20)	(448,3)	(457,1)	(0,3)	(-16,4)	(455,1)	(5,4)	(441,1)	(7,1)	(3,1)	
L1D -268>	(465,13)	(0,5)	(281,15)	(282,4)	(268,5)	(256,72)	(273,6)	(248,8)	(249,7)	(451,3)	(316,4)	(288,17)	(272,3)	(250,2)	(296,2)	(258,9)	
L1D -267>	(95,60)	(288,2)	(-1,2)	(307,3)	(264,2)	(1,22)	(272,2)	(0,22)	(89,5)	(80,10)	(315,8)	(444,12)	(437,1)	(-64,29)	(2,1)	(88,8)	
L1D -266>	(0,28)	(1,69)	(-1,3)	(288,1)	(266,6)	(272,2)	(268,1)	(88,16)	(248,1)	(256,1)	(304,1)	(267,1)	(250,1)	(-4,1)	(276,3)	(293,1)	
L1D -265>	(0,27)	(1,8)	(265,1)	(176,0)	(-64,0)	(268,0)	(275,0)	(88,80)	(-16,1)	(93,0)	(256,0)	(378,0)	(273,0)	(260,0)	(-1,0)	(465,0)	
L1D -264>	(-1,3)	(0,103)	(88,71)	(-128,1)	(301,1)	(250,1)	(252,2)	(1,0)	(332,0)	(264,1)	(292,0)	(288,1)	(268,0)	(-2,0)	(256,1)	(303,0)	
L1D -263>	(245,5)	(437,19)	(0,79)	(-128,19)	(88,111)	(87,4)	(1,6)	(307,3)	(-16,3)	(-13,1)	(264,2)	(8,1)	(265,1)	(-1,14)	(104,1)	(201,1)	
L1D -262>	(-64,2)	(1,1)	(262,1)	(-22,1)	(454,1)	(2,2)	(8,1)	(0,8)	(310,1)	(377,3)	(5,3)	(183,4)	(-8,1)	(261,2)	(197,1)	(105,1)	
L1D -261>	(243,4)	(270,9)	(122,22)	(2,22)	(1,7)	(311,2)	(261,21)	(183,26)	(197,2)	(0,9)	(377,2)	(260,1)	(465,4)	(115,9)	(8,7)	(40,1)	
L1D -260>	(-145,4)	(456,1)	(280,2)	(273,3)	(275,2)	(264,2)	(260,46)	(448,8)	(-1,3)	(122,5)	(319,13)	(268,7)	(121,11)	(465,5)	(8,13)	(112,6)	
L1D -259>	(292,9)	(290,10)	(310,7)	(250,4)	(112,10)	(87,4)	(264,9)	(-1,4)	(120,5)	(105,4)	(416,3)	(121,14)	(7,1)	(0,15)	(122,11)	(2,13)	
L1D -258>	(0,18)	(276,15)	(258,15)	(465,6)	(273,2)	(264,6)	(267,14)	(416,8)	(284,2)	(1,4)	(121,7)	(384,2)	(112,4)	(251,2)	(293,2)	(268,10)	
L1D -257>	(264,29)	(250,18)	(274,4)	(120,5)	(284,5)	(465,18)	(0,58)	(258,20)	(282,5)	(275,29)	(266,5)	(304,7)	(67,5)	(260,29)	(268,88)	(458,1)	
L1D -256>	(1,32)	(465,9)	(282,6)	(256,22)	(257,4)	(297,4)	(239,4)	(121,4)	(0,16)	(289,6)	(304,7)	(260,6)	(-64,1)	(288,4)	(283,13)	(268,59)	
L1D -255>	(0,11)	(255,28)	(183,2)	(73,2)	(8,2)	(-8,12)	(-64,3)	(219,4)	(191,2)	(-55,4)	(16,14)	(-86,2)	(197,3)	(121,1)	(71,1)	(110,1)	
L1D -254>	(263,5)	(390,2)	(72,2)	(-7,2)	(254,12)	(197,2)	(7,2)	(-8,4)	(466,2)	(1,6)	(8,7)	(74,1)	(192,1)	(73,1)	(67,2)	(120,1)	
L1D -253>	(294,5)	(262,6)	(357,10)	(320,2)	(114,3)	(-64,3)	(0,3)	(452,8)	(257,4)	(261,2)	(264,2)	(256,3)	(77,1)	(272,1)	(304,3)	(252,1)	
L1D -252>	(7,76)	(-6,0)	(113,0)	(-9,8)	(55,4)	(336,0)	(6,4)	(252,5)	(244,0)	(1,0)	(69,0)	(0,1)	(446,0)	(-73,0)	(-10,0)	(273,0)	
L1D -251>	(7,2)	(5,79)	(264,2)	(286,0)	(440,0)	(1,1)	(298,0)	(256,0)	(273,0)	(251,0)	(-1,11)	(118,1)	(-7,0)	(4,1)	(112,0)	(448,1)	
L1D -250>	(101,22)	(103,31)	(121,65)	(90,25)	(250,80)	(95,3)	(117,12)	(91,12)	(104,47)	(114,8)	(102,11)	(97,3)	(265,25)	(264,7)	(96,1)	(110,9)	
L1D -249>	(264,26)	(260,4)	(357,8)	(256,9)	(273,10)	(272,5)	(289,28)	(-64,1)	(290,3)	(268,4)	(265,4)	(249,4)	(250,4)	(465,6)	(288,4)	(257,3)	
L1D -248>	(447,1)	(-9,0)	(4,1)	(40,82)	(276,0)	(9,0)	(41,0)	(5,6)	(225,0)	(55,0)	(236,0)	(257,0)	(446,0)	(256,0)	(248,0)	(79,0)	
L1D -247>	(326,2)	(-9,2)	(197,5)	(16,12)	(337,6)	(183,1)	(263,1)	(255,1)	(-3,1)	(247,1)	(8,47)	(0,13)	(276,1)	(346,4)	(373,4)	(5,5)	
L1D -246>	(-76,1)	(-64,9)	(0,1)	(-5,1)	(246,1)	(-7,1)	(56,1)	(40,1)	(5,1)	(8,85)	(-8,0)	(7,59)	(-1,2)	(16,0)	(1,2)	(10,0)	
L1D -245>	(9,13)	(0,14)	(-5,2)	(260,2)	(245,2)	(459,2)	(56,5)	(93,2)	(5,18)	(246,2)	(-15,4)	(438,7)	(4,4)	(-4,1)	(146,1)	(249,1)	
L1D -244>	(5,109)	(41,1)	(9,1)	(56,1)	(-5,0)	(-64,2)	(-10,0)	(1,0)	(1,0)	(1,0)	(1,0)	(1,0)	(1,0)	(1,0)	(1,0)	(1,0)	
L1D -243>	(97,1)	(-4,0)	(4,52)	(5,100)	(317,0)	(113,0)	(-3,0)	(316,0)	(-9,0)	(345,0)	(324,0)	(9,7)	(368,0)	(40,0)	(361,0)	(322,0)	
L1D -242>	(238,2)	(1,3)	(0,3)	(-10,36)	(-64,2)	(5,84)	(44,25)	(-72,1)	(435,24)	(431,4)	(-29,1)	(317,1)	(361,1)	(330,1)	(9,6)	(49,1)	
L1D -241>	(5,72)	(448,2)	(-5,1)	(246,2)	(274,5)	(-9,14)	(-64,2)	(354,1)	(209,2)	(434,1)	(220,1)	(40,12)	(277,1)	(10,6)	(442,1)	(0,4)	
L1D -240>	(5,47)	(79,1)	(-1,0)	(4,4)	(-64,19)	(64,78)	(-55,1)	(-60,1)	(40,10)	(447,1)	(239,3)	(56,4)	(315,0)	(240,1)	(-12,0)	(-73,0)	
L1D -239>	(5,72)	(4,12)	(-42,5)	(1,52)	(40,87)	(0,7)	(243,2)	(316,2)	(-64,15)	(315,2)	(-4,2)	(-9,3)	(357,2)	(238,1)	(56,2)	(10,2)	
L1D -238>	(-42,35)	(1,18)	(185,3)	(5,40)	(0,12)	(-9,7)	(266,7)	(450,4)	(238,21)	(-5,1)	(357,2)	(446,3)	(4,10)	(404,5)	(398,3)	(-64,8)	
L1D -237>	(56,2)	(309,7)	(251,9)	(260,1)	(303,2)	(237,5)	(283,1)	(460,1)	(55,3)	(377,2)	(404,1)	(13,3)	(229,2)	(435,1)	(-64,2)	(0,2)	
L1D -236>	(8,2)	(-64,112)	(437,2)	(224,1)	(55,1)	(426,1)	(88,1)	(427,4)	(232,2)	(236,6)	(-144,3)	(9,1)	(264,1)	(423,1)	(0,1)	(56,1)	
L1D -235>	(-64,2)	(-1,2)	(395,6)	(5,81)	(284,1)	(41,15)	(68,4)	(315,2)	(444,2)	(235,1)	(272,2)	(307,1)	(311,3)	(430,1)	(338,3)	(33,1)	
L1D -234>	(4,12)	(40,3)	(47,1)	(8,1)	(32,2)	(-8,1)	(-64,3)	(-2,1)	(13,2)	(5,3)	(0,1)	(233,1)	(-66,1)	(253,1)	(261,1)	(1,0)	
L1D -233>	(17,68)	(349,0)	(-64,0)	(0,0)	(233,0)	(1,0)	(1,0)	(1,0)	(1,0)	(1,0)	(1,0)	(1,0)	(1,0)	(1,0)	(1,0)	(1,0)	
L1D -232>	(220,5)	(-64,8)	(-15,2)	(315,7)	(232,13)	(300,6)	(292,15)	(271,2)	(429,5)	(-128,1)	(203,1)	(400,2)	(191,1)	(224,3)	(431,1)	(1,18)	
L1D -231>	(255,1)	(191,1)	(200,1)	(195,1)	(208,1)	(0,2)	(-64,9)	(165,1)	(395,90)	(284,16)	(-57,1)	(226,4)	(78,2)	(88,1)	(1,0)	(1,0)	
L1D -230>	(4,13)	(-64,2)	(301,1)	(230,2)	(357,1)	(223,2)	(78,7)	(0,2)	(79,1)	(1,0)	(1,0)	(1,0)	(1,0)	(1,0)	(1,0)	(1,0)	
L1D -229>	(442,2)	(-64,6)	(8,2)	(243,2)	(301,2)	(229,5)	(0,1)	(4,4)	(-10,58)	(88,1)	(217,2)	(224,1)	(419,19)	(245,1)	(415,1)	(42,1)	
L1D -228>	(0,2)	(9,8)	(8,3)	(-1,2)	(415,3)	(296,13)	(228,5)	(419,4)	(292,8)	(315,9)	(300,7)	(236,6)	(1,2)	(429,14)	(24,1)	(313,1)	
L1D -227>	(338,1)	(7,1)	(-1,5)	(8,1)	(227,23)	(-64,2)	(68,15)	(2,2)	(-248,1)	(82,1)	(-242,1)	(357,7)	(88,2)	(-73,2)	(21,1)	(311,1)	
L1D -226>	(0,43)	(265,1)	(1,2)	(21,12)	(-55,7)	(127,5)	(226,19)	(188,2)	(222,2)	(-60,6)	(310,5)	(-128,2)	(-64,2)	(-243,3)	(28,12)	(24,23)	
L1D -225>	(1,12)	(0,10)	(24,16)	(28,2)	(232,2)	(218,5)	(-2,9)	(225,7)	(236,6)	(234,4)	(-64,4)	(227,6)	(4,1)	(21,3)	(16,1)	(-257,3)	
L1D -224>	(0,8)	(211,8)	(-64,62)	(-222,3)	(224,12)	(66,4)	(208,4)	(16,1)	(226,3)	(236,3)	(232,1)	(433,1)	(250,1)	(251,1)	(-248,3)	(199,10)	
L1D -223>	(71,4)	(-5,1)	(223,5)	(64,1)	(0,6)	(227,19)	(2,2)	(-64,12)	(302,1)	(192,1)	(387,15)	(276,3)	(67,2)	(79,2)	(1,0)	(1,0)	
L1D -222>	(226,7)	(411,3)	(446,4)	(51,2)	(53,1)	(-186,1)	(1,4)	(-257,2)	(-183,2)	(239,1)	(57,2)	(49,6)	(17,1)	(33,5)	(208,11)	(41,1)	
L1D -221>	(-3,1)	(-64,2)	(1,3)	(24,1)	(78,2)	(-8,1)	(0,1)	(-17,1)	(310,2)	(-175,12)	(16,1)	(221,1)	(32,5)	(79,1)	(197,1)	(67,1)	
L1D -220>	(2,4)	(24,7)	(0,17)	(-1,5)	(1,2)	(-9,5)	(208,4)	(8,3)	(414,2)	(228,3)	(209,2)	(7,2)	(-175,5)	(-64,11)	(-179,3)	(-258,2)	
L1D -219>	(-9,6)	(-258,3)	(-177,1)	(72,2)	(232,2)	(211,3)	(-267,3)	(255,6)	(7,4)	(0,3)	(24,3)	(-276,4)	(395,4)	(-64,6)	(-126,3)	(262,2)	
L1D -218>	(249,27)	(208,3)	(193,3)	(0,31)	(-2,7)	(400,4)	(-9,2)	(209,4)	(51,9)	(21,5)	(1,8)	(270,1)	(217,6)	(-36,2)	(8,2)	(203,8)	
L1D -217>	(0,5)	(210,2)	(16,2)	(316,1)	(60,2)	(217,7)	(-2,6)	(-184,1)	(-248,7)	(79,2)	(232,3)	(209,3)	(211,1)	(208,1)	(4,2)	(80,4)	
L1D -216>	(43,21)	(-64,4)	(192,3)	(0,21)	(407,40)	(195,5)	(27,22)	(204,32)	(193,5)	(35,1)	(39,9)	(-256,4)	(384,4)	(191,27)	(203,19)	(26,2)	
L1D -215>	(1,8)	(215,2)	(0,46)	(403,7)	(-64,2)	(379,10)	(-257,14)	(255,14)	(219,6)	(268,2)	(-118,3)	(191,4)	(2,1)	(-192,7)	(208,1)	(407,6)	
L1D -214>	(0,62)	(13,2)	(8,10)	(214,2)	(-258,4)	(406,7)	(410,2)	(409,4)	(-64,4)	(182,3)	(-266,2)	(-194,2)	(2,2)	(1,7)	(202,4)	(-128,4)	
L1D -213>	(0,36)	(-249,8)	(-251,2)	(392,4)	(-259,4)	(-64,7)	(15,2)	(64,3)	(-252,9)	(213,9)	(296,1)	(-194,2)	(2,6)	(86,1)	(85,4)	(93,1)	
L1D -212>	(4,20)	(32,2)	(0,17)	(9,40)	(212,104)	(-7,2)	(310,8)	(-238,4)	(-197,2)	(80,10)	(38,4)	(191,5)	(101,2)	(-254,8)	(16,3)	(-260,1)	
L1D -211>	(-259,6)	(1,12)	(-175,4)	(401,2)	(15,2)	(-249,2)	(-251,3)	(211,5)	(83,9)	(0,11)	(195,3)	(-10,46)	(3,4)	(168,2)	(-64,20)	(-198,6)	
L1D -210>	(8,9)	(0,7)	(250,4)	(128,3)	(210,10)	(-2,6)	(-64,5)	(1,4)	(209,5)	(310,2)	(311,3)	(-183,3)	(-9,2)	(82,1)	(-24,1)	(41,1)	
L1D -209>	(-256,15)	(-139,4)	(-259,2)	(79,3)	(9,3)	(203,2)	(115,3)	(-200,4)	(1,1)	(179,2)	(-9,8)	(83,7)	(8,6)	(81,2)	(0,5)	(106,1)	
L1D -208>	(40,10)	(41,111)	(8,1)	(9,34)	(-128,0)	(80,3)	(249,0)	(5,1)	(33,0)	(208,12)	(35,1)	(-16,3)	(-264,3)	(-64,2)	(-200,8)	(-4,0)	
L1D -207>	(80,0)	(40,13)	(9,79)	(5,2)	(39,0)	(4,2)	(0,0)	(-128,0)	(38,0)	(-200,1)	(-21,1)	(-64,6)	(207,3)	(7,1)	(-7,1)	(364,0)	
L1D -206>	(-128,2)	(0,6)	(-21,3)	(276,12)	(185,3)	(206,14)	(189,2)	(182,3)	(402,2)	(80,3)	(3,37)	(8,5)	(404,88)	(398,30)	(-252,1)	(-64,4)	
L1D -205>	(0,9)	(9,6)	(5,3)	(213,3)	(-64,8)	(4,1)	(205,15)	(404,116)	(8,5)	(377,5)	(384,13)	(185,18)	(233,2)	(-24,3)	(204,2)	(402,6)	
L1D -204>	(5,18)	(15,11)	(-249,16)	(208,21)	(27,21)	(43,17)	(85,1)	(4,40)	(204,87)	(207,6)	(-4,105)	(41,123)	(209,22)	(14,2)	(0,67)	(-217,2)	
L1D -203>	(215,1)	(41,54)	(-2,0)	(-64,0)	(5,11)	(40,67)	(0,0)	(4,0)	(-4,0)	(9,110)	(91,2)	(-128,0)	(255,0)	(274,0)	(238,0)	(198,0)	
L1D -202>	(4,30)	(83,1)	(242,0)	(44,1)	(193,2)	(9,69)	(82,0)	(90,0)	(41,0)	(192,0)	(-228,0)	(0,0)	(213,0)	(202,0)	(87,0)	(-128,0)	
L1D -201>	(-194,7)	(-1,10)	(63,10)	(69,10)	(208,13)	(9,24)	(-24,6)	(209,10)	(0,22)	(313,3)	(-264,23)	(-8,8)	(-5,3)	(191,6)	(197,13)	(201,9)	
L1D -200>	(40,31)	(41,12)	(-1,10)	(-64,30)	(200,23)	(-132,4)	(115,4)	(203,4)	(-18,6)	(5,24)	(306,1)	(-9,14)	(209,36)	(0,12)	(4,4)	(208,24)	
L1D -199>	(-252,1)	(5,111)	(-28,2)	(41,27)	(-21,2)	(68,0)	(-260,0)	(-236,0)	(-182,0)	(356,0)	(155,0)	(151,0)	(0,0)	(-174,0)	(40,0)	(1,0)	
L1D -198>	(6,1)	(4,3)	(-21,2)	(-48,0)	(40,82)	(183,0)	(377,0)	(0,0)	(-128,0)	(-9,4)	(-40,0)	(409,2)	(-1,0)	(-3,0)	(9,0)	(1,1)	
L1D -197>	(1,3)	(-69,2)	(-64,4)	(199,3)	(5,14)	(9,2)	(393,3)	(377,26)	(197,38)	(0,103)	(183,13)	(185,4)	(-10,4)	(-88,1)	(49,1)	(50,1)	
L1D -196>	(0,30)	(124,3)	(-24,10)	(1,3)	(-206,8)	(311,4)	(64,4)	(-228,10)	(-213,7)	(209,4)	(196,68)	(49,19)	(-197,27)	(213,7)	(85,8)	(-182,4)	
L1D -195>	(274,7)	(238,8)	(190,7)	(-64,4)	(176,8)	(195,30)	(-214,16)	(14,9)	(240,4)	(241,3)	(-1,9)	(-228,3)	(91,1)	(74,2)	(92,2)	(213,7)	
L1D -194>	(-64,3)	(83,5)	(90,1)	(194,7)	(-275,2)	(-184,1)	(-60,1)	(41,121)	(5,70)	(-128,1)	(9,24)	(14,2)	(91,2)	(0,3)	(-238,1)	(71,1)	
L1D -193>	(1,3)	(193,1)	(82,1)	(8,2)	(228,0)	(317,3)	(13,82)	(225,1)	(402,1)	(18,0)	(9,0)	(-64,2)	(233,0)	(0,0)	(-289,1)	(7,0)	
L1D -192>	(-9,8)	(98,4)	(-64,6)	(154,59)	(192,57)	(-279,10)	(0,24)	(7,15)	(155,19)	(302,1)	(219,2)	(-257,5)	(208,3)	(-242,16)	(-175,20)	(36,2)	
L1D -191>	(175,7)	(-64,30)	(153,82)	(-208,8)	(191,25)	(154,25)	(9,7)	(0,11)	(20,6)	(-242,3)	(52,6)	(6,6)	(-1,9)	(44,12)	(-216,11)	(-224,4)	
L1D -190>	(152,107)	(153,27)	(5,52)	(-64,29)	(7,6)	(255,3)	(151,1)	(-232,6)	(197,16)	(9,4)	(-2,7)	(-228,4)	(-289,19)	(1,5)	(0,15)	(190,6)	
L1D -189>	(152,106)	(-172,7)	(151,103)	(293,4)	(204,9)	(4,3)	(157,9)	(-64,6)	(102,1)	(0,9)	(101,6)	(1,3)	(-175,56)	(-150,3)	(7,3)	(6,4)	
L1D -188>	(-197,6)	(151,90)	(150,55)	(156,4)	(1,17)	(0,27)	(187,2)	(172,9)	(-32,8)	(2,26)	(188,7)	(5,12)	(-64,8)	(6,3)	(-256,8)	(-205,46)	
L1D -187>	(13,101)	(7,2)	(-177,4)	(-64,2)	(150,8)	(128,1)	(-206,12)	(187,5)	(0,1)	(-283,2)	(-5,3)	(-163,1)	(-148,4)	(-157,5)	(-276,6)	(59,15)	
L1D -186>	(213,11)	(148,6)	(186,44)	(-279,7)	(2,101)	(197,8)	(60,4)	(-4,13)	(47,5)	(-228,4)	(-64,18)	(-128,4)	(-206,17)	(7,10)	(5,14)	(-5,21)	
L1D -185>	(104,38)	(-279,10)	(148,2)	(-5,22)	(185,28)	(-8,93)	(5,12)	(1,10)	(153,11)	(-139,5)	(-64,11)	(-72,13)	(7,26)	(2,37)	(-2,4)	(-158,6)	
L1D -184>	(183,12)	(-5,45)	(184,24)	(-205,21)	(-64,52)	(168,1)	(-216,31)	(7,29)	(1,25)	(-224,12)	(-288,9)	(378,3)	(5,30)	(6,15)	(-4,8)	(2,102)	
L1D -183>	(6,12)	(-1,5)	(-5,28)	(-289,110)	(183,40)	(255,4)	(-276,9)	(1,13)	(-273,4)	(197,2)	(-18,6)	(-282,4)	(5,20)	(2,87)	(7,37)	(-4,11)	
L1D -182>	(94,13)	(-19,13)	(163,92)	(-4,1)	(2,16)	(-5,8)	(182,5)	(7,1)	(-3,2)	(1,4)	(6,5)	(5,3)	(-15,2)	(0,1)	(-9,6)	(-134,1)	
L1D -181>	(-5,83)	(-1,10)	(-272,11)	(0,18)	(-4,8)	(1,51)	(-284,10)	(-64,80)	(181,28)	(5,14)	(2,123)	(104,27)	(7,41)	(-26,1)	(-8,9)	(6,31)	
L1D -180>	(-4,2)	(2,19)	(-5,27)	(6,1)	(180,21)	(116,1)	(-197,38)	(1,15)	(0,4)	(5,10)	(13,118)	(-284,10)	(64,1)	(-26,1)	(-192,10)	(7,9)	
L1D -179>	(-1,105)	(-5,10)	(179,4)	(1,3)	(-206,1)	(-64,3)	(51,7)	(-4,1)	(2,8)	(-6,1)	(5,6)	(7,7)	(178,1)	(0,0)	(-205,0)	(40,0)	
L1D -178>	(-5,115)	(128,23)	(1,117)	(2,89)	(163,97)	(213,4)	(0,34)	(-289,3)	(50,10)	(88,29)	(178,63)	(5,31)	(6,15)	(-4,18)	(-72,1)	(-150,2)	
L1D -177>	(0,32)	(264,1)	(191,0)	(-5,11)	(1,44)	(6,1)	(352,0)	(2,4)	(-47,1)	(294,0)	(49,0)	(-45,1)	(177,0)	(-64,5)	(88,71)	(-1,3)	
L1D -176>	(0,118)	(300,3)	(112,12)	(63,2)	(49,6)	(43,2)	(61,4)	(44,2)	(88,72)	(1,3)	(66,1)	(60,11)	(58,7)	(-5,11)	(176,3)	(59,1)	
L1D -175>	(-1,9)	(-5,68)	(1,40)	(0,37)	(175,36)	(-64,85)	(-6,1)	(7,4)	(31,1)	(88,49)	(2,35)	(-4,4)	(6,2)	(5,6)	(-78,4)	(-19,1)	
L1D -174>	(-279,12)	(-263,12)	(-5,75)	(175,4)	(174,54)	(-287,3)	(13,14)	(-64,3)	(1,28)	(7,12)	(163,35)	(5,9)	(2,32)	(-217,1)	(20,9)	(-4,10)	
L1D -173>	(-5,67)	(173,55)	(-4,11)	(1,44)	(2,44)	(59,1)	(6,11)	(7,18)	(5,36)	(-1,3)	(-64,2)	(174,8)	(-281,1)	(-39,1)	(-207,1)	(-6,2)	
L1D -172>	(373,2)	(48,2)	(0,3)	(-5,70)	(5,42)	(9,18)	(-64,24)	(1,56)	(-4,8)	(172,36)	(-1,2)	(6,20)	(3,4)	(190,2)	(7,29)	(2,45)	
L1D -171>	(59,2)	(191,2)	(171,54)	(-5,96)	(172,11)	(5,79)	(-64,9)	(-1,8)	(6,54)	(1,121)	(2,95)	(7,42)	(51,10)	(-11,9)	(-9,2)	(-4,13)	
L1D -170>	(170,36)	(-5,89)	(-267,1)	(6,29)	(5,32)	(-1,16)	(-4,20)	(7,1)	(1,102)	(-6,2)	(-64,18)	(171,4)	(2,107)	(10,2)	(31,1)	(-8,1)	
L1D -169>	(-5,37)	(169,19)	(1,88)	(-1,2)	(6,2)	(170,3)	(-24,0)	(27,0)	(-70,0)	(-46,1)	(2,20)	(-64,0)	(5,9)	(7,6)	(-4,1)	(-6,1)	
L1D -168>	(-6,4)	(-5,38)	(0,2)	(168,19)	(169,5)	(-47,1)	(1,75)	(-15,1)	(6,5)	(-45,0)	(9,15)	(2,23)	(5,0)	(-4,3)	(3,0)	(-11,0)	
L1D -167>	(-6,2)	(1,125)	(-284,1)	(-30,1)	(-5,63)	(-4,7)	(9,25)	(40,5)	(168,7)	(20,5)	(167,35)	(-291,5)	(-34,10)	(-46,2)	(2,24)	(-45,2)	
L1D -166>	(-35,6)	(1,67)	(-31,1)	(-5,25)	(38,1)	(167,5)	(-271,5)	(6,1)	(166,23)	(-287,1)	(2,10)	(10,1)	(-45,2)	(-6,0)	(-47,1)	(-4,3)	
L1D -165>	(166,4)	(21,1)	(-5,58)	(32,6)	(177,1)	(1,97)	(154,2)	(159,5)	(158,26)	(2,30)	(165,39)	(-4,7)	(10,6)	(0,1)	(-46,1)	(-6,0)	
L1D -164>	(6,3)	(-218,2)	(-5,44)	(-231,26)	(1,53)	(2,49)	(164,92)	(-223,4)	(10,2)	(-37,2)	(-14,2)	(-6,4)	(-4,49)	(21,2)	(165,5)	(0,1)	
L1D -163>	(190,2)	(40,30)	(149,1)	(164,1)	(148,7)	(9,124)	(64,1)	(187,10)	(58,1)	(1,28)	(61,3)	(0,7)	(191,2)	(151,3)	(150,5)	(163,16)	
L1D -162>	(51,6)	(-215,2)	(4,104)	(9,97)	(163,1)	(152,8)	(185,2)	(186,1)	(0,5)	(-4,8)	(62,1)	(1,32)	(190,2)	(40,11)	(151,1)	(184,2)	
L1D -161>	(33,1)	(9,3)	(-293,1)	(-260,0)	(5,4)	(20,3)	(1,67)	(-20,1)	(21,1)	(-64,0)	(-46,0)	(44,0)	(181,2)	(15,0)	(35,0)	(202,1)	
L1D -160>	(-64,11)	(5,3)	(0,8)	(-139,3)	(10,2)	(1,127)	(21,2)	(-235,3)	(-130,1)	(24,2)	(2,3)	(9,8)	(-41,1)	(-146,2)	(-2,1)	(7,1)	
L1D -159>	(7,2)	(5,11)	(41,96)	(160,2)	(157,1)	(4,2)	(107,1)	(159,1)	(10,1)	(1,47)	(-10,1)	(154,1)	(164,1)	(-9,0)	(-3,1)	(40,0)	
L1D -158>	(-4,2)	(27,1)	(-2,1)	(121,1)	(5,88)	(162,48)	(40,111)	(-39,5)	(-3,29)	(3,3)	(0,9)	(1,66)	(4,1)	(41,33)	(9,1)	(14,1)	
L1D -157>	(6,4)	(-32,1)	(-9,2)	(1,112)	(28,2)	(27,2)	(-24,1)	(156,2)	(-14,2)	(10,5)	(4,1)	(13,4)	(160,0)	(-128,14)	(7,0)	(31,1)	
L1D -156>	(-128,3)	(16,3)	(-14,36)	(-10,4)	(156,0)	(-2,2)	(-6,2)	(6,3)	(10,37)	(28,3)	(203,2)	(-288,1)	(24,1)	(-1,1)	(1,64)	(177,2)	
L1D -155>	(1,12)	(157,52)	(156,33)	(-6,1)	(7,8)	(-1,3)	(5,39)	(154,78)	(9,3)	(189,2)	(-14,20)	(10,76)	(3,2)	(151,3)	(-128,7)	(-7,12)	
L1D -154>	(-14,87)	(10,18)	(156,7)	(24,2)	(2,1)	(-25,3)	(25,1)	(13,1)	(158,1)	(5,22)	(26,1)	(-11,1)	(-3,1)	(-260,1)	(41,41)	(9,4)	
L1D -153>	(9,6)	(154,34)	(-8,6)	(163,54)	(10,122)	(13,5)	(-139,25)	(0,15)	(155,17)	(24,13)	(7,7)	(156,50)	(-4,4)	(157,20)	(19,1)	(158,19)	
L1D -152>	(10,65)	(-292,2)	(2,21)	(9,6)	(0,8)	(-35,2)	(4,3)	(-15,3)	(24,7)	(-3,21)	(-13,6)	(-7,2)	(1,1)	(154,7)	(7,6)	(-64,3)	
L1D -151>	(-1,4)	(-309,7)	(148,10)	(-20,3)	(0,9)	(-6,1)	(-11,5)	(-301,2)	(4,44)	(54,2)	(-132,3)	(24,12)	(2,39)	(-26,2)	(-19,7)	(-8,18)	
L1D -150>	(1,9)	(4,35)	(2,9)	(-6,92)	(152,3)	(-1,19)	(16,30)	(5,19)	(324,11)	(-4,25)	(7,58)	(3,22)	(13,30)	(-2,36)	(150,7)	(-19,15)	
L1D -149>	(0,62)	(64,4)	(136,5)	(-5,7)	(7,35)	(8,39)	(-19,22)	(-3,6)	(-50,6)	(-20,11)	(4,6)	(128,9)	(-64,5)	(14,8)	(-139,4)	(151,1)	
L1D -148>	(-128,67)	(0,10)	(133,3)	(148,4)	(-12,1)	(169,5)	(-15,13)	(7,21)	(1,23)	(-10,3)	(-26,4)	(3,3)	(-19,21)	(-3,3)	(-20,8)	(9,1)	
L1D -147>	(64,11)	(1,18)	(-23,5)	(-64,14)	(-19,48)	(11,17)	(-2,11)	(-128,5)	(7,52)	(-20,28)	(132,46)	(0,28)	(5,98)	(-4,1)	(8,22)	(2,4)	
L1D -146>	(0,69)	(-3,0)	(-8,0)	(72,0)	(-31,0)	(-19,1)	(-20,0)	(2,0)	(-4,2)	(1,3)	(-16,0)	(9,11)	(-35,0)	(166,1)	(-128,5)	(-14,0)	
L1D -145>	(64,5)	(0,57)	(8,13)	(-2,6)	(-27,6)	(-13,14)	(-20,55)	(-26,5)	(-35,7)	(1,8)	(146,1)	(-19,65)	(-16,39)	(-25,7)	(4,8)	(-15,8)	
L1D -144>	(130,107)	(13,1)	(-7,1)	(-56,1)	(-13,3)	(0,4)	(15,2)	(-20,2)	(-63,1)	(-25,0)	(-16,1)	(-19,2)	(-15,0)	(-37,2)	(9,1)	(-9,3)	
L1D -143>	(6,105)	(0,77)	(11,1)	(-19,1)	(-12,1)	(7,1)	(129,11)	(3,17)	(-63,0)	(-9,1)	(-61,3)	(-56,1)	(-4,0)	(-25,0)	(-10,0)	(-20,2)	
L1D -142>	(11,9)	(0,24)	(-25,5)	(-7,4)	(-1,18)	(-20,73)	(-5,4)	(-16,43)	(1,1)	(2,8)	(-19,70)	(47,17)	(7,27)	(-22,4)	(-64,4)	(-11,2)	
L1D -141>	(1,79)	(2,36)	(135,7)	(16,8)	(-16,58)	(0,51)	(-22,9)	(8,6)	(-15,1)	(-20,74)	(-8,22)	(134,9)	(136,7)	(-19,67)	(-27,5)	(133,9)	
L1D -140>	(133,9)	(134,13)	(2,42)	(135,8)	(-16,40)	(-17,32)	(137,5)	(0,58)	(-19,76)	(-20,67)	(11,40)	(-22,7)	(8,65)	(-1,1)	(4,4)	(-64,25)	
L1D -139>	(-4,26)	(10,15)	(2,14)	(-128,16)	(-20,8)	(4,16)	(-10,17)	(-1,95)	(-5,7)	(8,20)	(-3,1)	(0,2)	(-16,6)	(-7,4)	(-19,14)	(-15,8)	
L1D -138>	(137,5)	(-14,1)	(-1,3)	(5,3)	(-16,33)	(133,11)	(2,35)	(-4,3)	(64,7)	(-59,23)	(-64,3)	(-19,70)	(-20,41)	(15,9)	(134,25)	(136,16)	
L1D -137>	(137,37)	(2,102)	(4,4)	(1,7)	(8,11)	(149,3)	(-3,6)	(0,23)	(9,3)	(-19,101)	(-20,63)	(-16,37)	(-2,7)	(16,9)	(133,37)	(-27,1)	
L1D -136>	(2,19)	(133,9)	(134,8)	(144,35)	(16,127)	(-16,27)	(15,8)	(-139,1)	(121,2)	(0,7)	(-6,2)	(136,32)	(128,4)	(4,17)	(-20,54)	(-19,55)	
L1D -135>	(-260,0)	(15,1)	(-8,69)	(-16,1)	(-26,0)	(134,2)	(135,3)	(1,1)	(8,1)	(0,3)	(-19,15)	(5,0)	(2,2)	(-20,3)	(121,1)	(133,4)	
L1D -134>	(-20,69)	(2,39)	(14,50)	(316,2)	(-3,29)	(-4,2)	(15,5)	(134,19)	(1,4)	(-2,0)	(0,18)	(8,11)	(-19,52)	(13,15)	(-16,22)	(133,3)	
L1D -133>	(2,3)	(6,2)	(132,93)	(133,4)	(130,49)	(12,0)	(-19,7)	(0,8)	(-20,14)	(-31,0)	(122,0)	(14,2)	(-21,0)	(13,2)	(-16,1)	(-40,2)	
L1D -132>	(15,5)	(132,127)	(0,14)	(-20,67)	(19,8)	(-2,4)	(-16,22)	(2,9)	(122,7)	(8,22)	(-19,127)	(130,35)	(-11,1)	(70,1)	(-4,4)	(-40,1)	
L1D -131>	(-1,2)	(131,4)	(-63,3)	(9,11)	(-10,4)	(-59,3)	(-31,1)	(4,6)	(-65,3)	(-16,43)	(136,1)	(64,1)	(-20,123)	(-64,4)	(-8,6)	(1,14)	
L1D -130>	(132,51)	(130,27)	(-10,48)	(-128,15)	(-1,3)	(0,7)	(8,6)	(-31,1)	(-19,2)	(-20,117)	(-170,2)	(-64,8)	(-65,6)	(-63,13)	(-16,45)	(-14,7)	
L1D -129>	(0,23)	(-64,4)	(-16,33)	(-6,1)	(-1,13)	(7,1)	(-8,2)	(27,1)	(129,126)	(-24,8)	(21,6)	(97,9)	(72,3)	(80,15)	(9,8)	(85,8)	
L1D -128>	(7,24)	(0,22)	(17,8)	(10,6)	(16,97)	(24,32)	(-8,28)	(9,44)	(128,105)	(-4,13)	(-1,35)	(33,1)	(8,22)	(283,24)	(129,32)	(276,22)	
L1D -127>	(41,117)	(5,15)	(16,1)	(127,4)	(9,34)	(-305,1)	(8,1)	(40,17)	(34,123)	(0,2)	(7,1)	(-13,1)	(130,1)	(-7,1)	(1,6)	(1,0)	
L1D -126>	(4,71)	(9,69)	(40,3)	(-44,3)	(-1,1)	(8,3)	(0,1)	(-27,67)	(126,5)	(-4,3)	(1,9)	(-8,7)	(5,3)	(-179,1)	(-60,3)	(7,2)	
L1D -125>	(0,12)	(1,9)	(165,5)	(125,8)	(3,23)	(9,2)	(8,67)	(-193,4)	(-1,8)	(4,78)	(-64,3)	(129,5)	(114,1)	(197,1)	(-243,2)	(-6,1)	
L1D -124>	(-27,6)	(126,13)	(9,6)	(32,4)	(-7,6)	(124,18)	(8,101)	(0,19)	(2,6)	(-1,7)	(-193,3)	(-64,5)	(-8,3)	(137,17)	(-59,8)	(-44,12)	
L1D -123>	(123,42)	(5,9)	(64,5)	(41,104)	(-38,8)	(-45,4)	(4,45)	(118,2)	(-72,22)	(-5,8)	(-8,9)	(9,2)	(-70,44)	(-7,60)	(0,3)	(1,4)	
L1D -122>	(9,14)	(5,87)	(-56,1)	(132,6)	(-4,1)	(7,1)	(-3,0)	(130,3)	(40,66)	(124,6)	(-8,0)	(48,0)	(119,0)	(41,9)	(14,0)	(1,0)	
L1D -121>	(0,1)	(4,51)	(112,9)	(17,1)	(9,110)	(64,7)	(122,1)	(-3,5)	(-4,95)	(-278,1)	(-1,0)	(5,0)	(119,0)	(44,4)	(14,0)	(1,0)	
L1D -120>	(0,27)	(-14,28)	(4,5)	(41,3)	(2,21)	(-4,6)	(5,3)	(-27,4)	(-26,5)	(-25,8)	(15,1)	(3,5)	(-24,10)	(-16,81)	(1,30)	(-23,8)	
L1D -119>	(4,2)	(-8,5)	(1,24)	(41,3)	(64,4)	(2,18)	(18,3)	(130,7)	(-18,67)	(-151,1)	(0,26)	(-4,55)	(-3,2)	(5,8)	(3,12)	(-1,6)	
L1D -118>	(130,4)	(1,7)	(120,1)	(5,7)	(-3,3)	(115,0)	(41,78)	(-8,1)	(-90,0)	(-1,3)	(-18,5)	(122,1)	(-5,5)	(-256,0)	(14,0)	(103,2)	
L1D -117>	(130,18)	(-39,41)	(-1,13)	(5,28)	(-9,23)	(1,36)	(8,16)	(40,33)	(-51,1)	(121,8)	(-8,9)	(117,2)	(-3,104)	(-207,7)	(0,20)	(208,4)	
L1D -116>	(-8,41)	(-2,5)	(9,23)	(4,15)	(0,14)	(130,23)	(8,5)	(-1,51)	(111,3)	(123,3)	(-261,3)	(60,3)	(85,5)	(-6,2)	(-197,12)	(-10,13)	
L1D -115>	(13,64)	(64,5)	(-1,8)	(-8,0)	(-4,1)	(-3,1)	(7,11)	(8,4)	(-16,6)	(5,6)	(115,2)	(103,2)	(21,7)	(0,4)	(-262,2)	(-77,2)	
L1D -114>	(64,1)	(-1,102)	(24,2)	(-2,1)	(57,1)	(1,8)	(-7,10)	(-16,37)	(-88,1)	(103,0)	(40,4)	(-68,0)	(7,0)	(8,2)	(9,3)	(114,2)	
L1D -113>	(0,4)	(64,6)	(-9,6)	(9,2)	(5,31)	(8,15)	(41,109)	(72,1)	(-94,2)	(-72,1)	(56,3)	(-53,1)	(-12,1)	(117,2)	(-1,7)	(-95,1)	
L1D -112>	(0,12)	(9,6)	(-1,15)	(-5,2)	(-8,2)	(64,127)	(124,1)	(1,12)	(18,2)	(176,3)	(120,1)	(7,1)	(130,1)	(4,4)	(112,2)	(-12,3)	
L1D -111>	(102,6)	(-5,1)	(0,13)	(-1,44)	(130,3)	(111,18)	(9,27)	(3,2)	(64,8)	(-93,2)	(-8,29)	(27,2)	(-16,3)	(204,2)	(103,5)	(-256,3)	
L1D -110>	(-10,34)	(-16,4)	(-1,32)	(1,1)	(33,43)	(0,12)	(32,38)	(35,15)	(-8,102)	(204,4)	(36,2)	(34,6)	(-4,4)	(9,29)	(64,2)	(8,44)	
L1D -109>	(-4,1)	(85,1)	(116,1)	(108,1)	(-5,3)	(204,0)	(-6,0)	(7,0)	(-48,0)	(112,0)	(20,82)	(-60,0)	(-18,0)	(-11,0)	(-1,2)	(-8,3)	
L1D -108>	(130,1)	(1,23)	(111,2)	(115,1)	(2,1)	(118,1)	(0,2)	(-2,1)	(-302,2)	(-48,12)	(-21,3)	(-12,5)	(110,123)	(107,1)	(-55,0)	(-62,0)	
L1D -107>	(109,112)	(-1,5)	(5,127)	(-9,6)	(-8,22)	(2,7)	(11,3)	(0,10)	(107,4)	(-5,60)	(-11,4)	(8,5)	(-3,32)	(31,40)	(24,4)	(32,2)	
L1D -106>	(-276,2)	(-4,12)	(12,9)	(-25,2)	(-5,7)	(106,2)	(32,7)	(0,2)	(-144,3)	(105,35)	(-24,15)	(-272,2)	(-3,3)	(-101,3)	(308,1)	(-82,2)	
L1D -105>	(0,4)	(-1,92)	(64,43)	(32,1)	(-254,1)	(-24,1)	(21,12)	(24,3)	(129,1)	(-14,0)	(7,1)	(105,1)	(-9,1)	(112,2)	(2,1)	(1,0)	
L1D -104>	(21,12)	(-14,38)	(2,25)	(1,15)	(27,9)	(64,68)	(36,13)	(-24,13)	(104,6)	(14,2)	(9,48)	(28,7)	(119,3)	(-21,14)	(-7,46)	(0,7)	
L1D -103>	(2,53)	(0,20)	(64,2)	(-1,65)	(103,10)	(4,1)	(6,3)	(95,1)	(271,0)	(80,1)	(15,20)	(1,39)	(3,0)	(-16,3)	(129,3)	(-7,0)	
L1D -102>	(1,2)	(104,106)	(-5,1)	(-7,2)	(64,2)	(0,4)	(24,2)	(-6,23)	(8,2)	(4,16)	(-1,6)	(5,1)	(130,1)	(9,5)	(220,3)	(-16,5)	
L1D -101>	(-48,1)	(-1,25)	(64,5)	(109,1)	(308,3)	(189,124)	(0,4)	(101,3)	(41,1)	(7,2)	(2,33)	(-264,2)	(103,1)	(77,1)	(-7,1)	(85,1)	
L1D -100>	(85,3)	(0,3)	(11,5)	(-4,84)	(16,13)	(-1,1)	(-8,4)	(3,2)	(24,5)	(64,0)	(-21,0)	(25,0)	(9,2)	(100,3)	(253,1)	(-7,2)	
L1D -99>	(-2,4)	(-4,22)	(-9,18)	(101,114)	(-16,2)	(0,8)	(-109,2)	(-32,2)	(10,3)	(220,7)	(-3,1)	(-58,23)	(99,1)	(11,4)	(195,1)	(1,2)	
L1D -98>	(0,32)	(87,3)	(-21,1)	(22,8)	(-12,17)	(4,1)	(88,12)	(-32,5)	(20,2)	(24,1)	(-9,1)	(5,1)	(92,3)	(-116,1)	(221,4)	(-58,66)	
L1D -97>	(1,13)	(105,4)	(8,127)	(9,3)	(41,37)	(2,36)	(-35,17)	(-7,46)	(64,17)	(88,4)	(13,2)	(87,5)	(-1,33)	(0,3)	(129,1)	(-3,2)	
L1D -96>	(0,38)	(95,30)	(-8,46)	(-4,65)	(221,1)	(207,2)	(-7,7)	(-58,86)	(-43,8)	(100,9)	(64,9)	(-91,4)	(88,12)	(-104,3)	(-1,7)	(21,2)	
L1D -95>	(99,31)	(0,21)	(66,1)	(2,88)	(11,16)	(64,103)	(85,1)	(1,83)	(4,4)	(6,2)	(-41,1)	(-7,1)	(129,3)	(95,1)	(9,4)	(96,1)	
L1D -94>	(4,32)	(-264,2)	(3,2)	(95,4)	(98,1)	(0,7)	(7,2)	(64,10)	(1,2)	(320,1)	(94,1)	(-281,5)	(11,6)	(-4,79)	(88,3)	(-200,2)	
L1D -93>	(-2,81)	(18,2)	(-1,21)	(-339,1)	(94,68)	(8,2)	(0,22)	(6,4)	(-111,1)	(2,29)	(-104,1)	(9,17)	(101,1)	(-7,1)	(222,8)	(1,1)	
L1D -92>	(75,17)	(-1,7)	(64,73)	(212,23)	(1,8)	(95,85)	(223,14)	(88,4)	(-41,11)	(4,24)	(89,3)	(-5,1)	(76,10)	(253,33)	(-257,4)	(0,6)	
L1D -91>	(93,14)	(-117,1)	(-7,25)	(0,2)	(-109,1)	(-181,8)	(-31,1)	(96,3)	(64,1)	(-38,1)	(-28,1)	(1,7)	(-3,2)	(128,1)	(-6,1)	(8,105)	
L1D -90>	(1,15)	(-4,12)	(210,15)	(93,7)	(4,4)	(224,7)	(9,6)	(-8,99)	(-35,1)	(88,4)	(95,6)	(223,13)	(-34,30)	(80,8)	(0,3)	(90,71)	
L1D -89>	(1,34)	(80,21)	(0,55)	(64,2)	(88,64)	(91,8)	(3,0)	(-28,0)	(207,0)	(-1,2)	(-39,2)	(6,3)	(-34,4)	(4,1)	(-15,0)	(9,2)	
L1D -88>	(0,90)	(-2,2)	(-9,68)	(75,1)	(94,0)	(90,3)	(-1,3)	(-305,0)	(64,4)	(1,1)	(3,0)	(-265,0)	(-8,4)	(88,58)	(208,0)	(-14,0)	
L1D -87>	(0,4)	(1,101)	(-8,0)	(-60,1)	(89,6)	(-205,0)	(9,0)	(64,8)	(-58,0)	(86,0)	(224,1)	(-1,0)	(8,0)	(87,41)	(88,10)	(7,3)	
L1D -86>	(65,1)	(64,3)	(41,85)	(90,0)	(75,0)	(83,0)	(-4,2)	(8,1)	(86,0)	(-1,2)	(88,7)	(9,44)	(1,1)	(79,0)	(40,38)	(-2,0)	
L1D -85>	(82,1)	(-15,3)	(-23,24)	(4,99)	(95,3)	(64,6)	(3,2)	(129,2)	(77,2)	(1,3)	(57,3)	(0,5)	(90,3)	(-25,7)	(69,1)	(-13,90)	
L1D -84>	(-14,15)	(5,4)	(28,2)	(212,4)	(125,1)	(226,3)	(197,3)	(0,1)	(85,3)	(1,4)	(129,2)	(64,6)	(72,6)	(225,6)	(-9,77)	(-289,4)	
L1D -83>	(64,17)	(-102,43)	(40,9)	(72,38)	(-115,11)	(5,14)	(75,4)	(-107,7)	(0,20)	(209,10)	(9,33)	(100,1)	(213,3)	(4,5)	(-48,9)	(196,29)	
L1D -82>	(-3,77)	(5,2)	(9,2)	(77,0)	(128,0)	(2,1)	(72,0)	(107,0)	(61,0)	(1,2)	(86,0)	(82,0)	(90,0)	(41,0)	(40,0)	(8,0)	
L1D -81>	(53,1)	(86,1)	(-2,1)	(4,25)	(40,1)	(79,5)	(7,0)	(-4,9)	(72,0)	(-1,0)	(21,0)	(9,108)	(5,0)	(0,0)	(90,0)	(-102,2)	
L1D -80>	(9,6)	(0,12)	(4,1)	(13,1)	(64,104)	(56,2)	(82,2)	(66,1)	(200,2)	(2,1)	(24,2)	(120,1)	(5,1)	(60,1)	(49,1)	(84,93)	
L1D -79>	(83,68)	(-1,30)	(-5,11)	(-36,5)	(-107,24)	(79,2)	(64,106)	(77,1)	(-3,12)	(8,1)	(-102,114)	(1,3)	(40,1)	(-115,20)	(-2,48)	(-4,5)	
L1D -78>	(-8,1)	(-36,6)	(-3,35)	(8,1)	(3,0)	(80,5)	(9,2)	(0,2)	(129,1)	(40,0)	(2,5)	(64,0)	(78,0)	(-1,19)	(1,68)	(-58,0)	
L1D -77>	(82,2)	(-39,6)	(77,7)	(81,2)	(14,12)	(41,2)	(-9,9)	(-4,80)	(130,5)	(86,1)	(1,7)	(-1,6)	(0,1)	(2,20)	(40,5)	(56,3)	
L1D -76>	(-1,27)	(2,4)	(76,57)	(10,1)	(0,50)	(1,18)	(75,25)	(128,2)	(129,77)	(-36,34)	(28,3)	(117,1)	(64,3)	(84,4)	(12,2)	(14,1)	
L1D -75>	(84,127)	(1,69)	(130,5)	(76,83)	(75,74)	(9,5)	(-1,19)	(44,16)	(0,26)	(3,3)	(68,4)	(28,1)	(64,47)	(22,2)	(18,4)	(129,76)	
L1D -74>	(4,4)	(-3,82)	(3,1)	(-2,49)	(129,11)	(0,6)	(13,5)	(-18,38)	(1,24)	(-1,1)	(76,8)	(73,1)	(64,3)	(74,5)	(200,1)	(-7,4)	
L1D -73>	(64,46)	(0,20)	(192,6)	(-1,48)	(1,36)	(130,10)	(-7,1)	(15,13)	(75,6)	(129,67)	(73,12)	(14,22)	(76,4)	(9,30)	(24,20)	(-2,56)	
L1D -72>	(64,69)	(266,2)	(72,23)	(-1,53)	(21,1)	(76,5)	(0,11)	(46,2)	(250,7)	(74,1)	(15,8)	(2,1)	(75,2)	(129,26)	(34,2)	(314,1)	
L1D -71>	(-3,69)	(17,44)	(71,3)	(7,1)	(1,101)	(64,7)	(65,21)	(194,1)	(-4,1)	(-1,1)	(130,18)	(4,0)	(-10,4)	(-6,7)	(0,0)	(-5,0)	
L1D -70>	(70,1)	(1,30)	(30,28)	(21,0)	(-10,0)	(129,74)	(0,22)	(-1,10)	(-4,3)	(-3,9)	(11,0)	(132,1)	(-7,18)	(85,2)	(47,0)	(64,0)	
L1D -69>	(-16,7)	(-236,2)	(73,7)	(69,23)	(47,6)	(66,4)	(128,11)	(72,16)	(-19,2)	(12,2)	(23,7)	(67,6)	(-1,109)	(64,5)	(84,1)	(0,8)	
L1D -68>	(-18,4)	(72,80)	(-15,1)	(1,1)	(-8,2)	(-3,11)	(-4,2)	(-10,1)	(-9,0)	(-1,0)	(2,0)	(-160,0)	(66,1)	(-2,12)	(-17,0)	(53,0)	
L1D -67>	(2,29)	(-3,68)	(-15,20)	(-10,4)	(-11,1)	(-2,1)	(-19,3)	(64,6)	(0,24)	(-248,6)	(-6,25)	(1,28)	(-1,113)	(-8,12)	(69,39)	(49,3)	
L1D -66>	(72,2)	(73,1)	(67,8)	(-27,0)	(69,1)	(47,5)	(64,0)	(71,7)	(0,4)	(-6,0)	(-7,106)	(-2,0)	(51,0)	(-4,3)	(-10,0)	(1,0)	
L1D -65>	(64,121)	(70,4)	(7,0)	(185,0)	(0,1)	(1,4)	(72,1)	(27,0)	(-3,3)	(31,0)	(-13,0)	(2,31)	(-6,6)	(-7,12)	(128,1)	(65,1)	
L1D -64>	(73,11)	(248,2)	(72,29)	(312,3)	(0,11)	(292,1)	(64,65)	(264,5)	(68,10)	(-64,16)	(232,11)	(66,7)	(103,1)	(74,8)	(256,2)	(280,6)	
L1D -63>	(0,7)	(-8,4)	(64,64)	(-1,10)	(63,3)	(19,1)	(60,3)	(-264,3)	(87,2)	(-200,5)	(12,16)	(20,2)	(5,3)	(1,110)	(191,33)	(4,3)	
L1D -62>	(66,1)	(2,89)	(4,2)	(56,1)	(-3,0)	(51,14)	(64,5)	(-2,4)	(62,16)	(63,0)	(52,0)	(-1,1)	(229,0)	(1,1)	(-70,0)	(60,0)	
L1D -61>	(14,0)	(32,0)	(58,94)	(69,11)	(189,0)	(61,1)	(-175,1)	(11,0)	(-6,8)	(5,6)	(-276,0)	(64,1)	(0,2)	(3,0)	(12,11)	(38,0)	
L1D -60>	(62,19)	(-33,6)	(-2,59)	(-3,37)	(0,116)	(63,12)	(64,39)	(-1,12)	(61,4)	(4,21)	(-5,25)	(-19,1)	(2,4)	(-4,28)	(67,3)	(-277,3)	
L1D -59>	(48,15)	(74,1)	(63,18)	(0,36)	(-5,2)	(30,2)	(64,23)	(-12,3)	(-27,10)	(43,2)	(112,88)	(-33,2)	(-128,2)	(-19,2)	(196,5)	(-10,35)	
L1D -58>	(14,0)	(0,1)	(2,67)	(4,0)	(53,1)	(1,26)	(-5,2)	(-7,1)	(-4,7)	(-6,10)	(50,0)	(47,0)	(-2,34)	(64,1)	(-14,2)	(58,0)	
L1D -57>	(8,5)	(57,70)	(47,74)	(34,1)	(64,93)	(2,9)	(55,57)	(44,3)	(0,60)	(9,29)	(-73,14)	(-2,27)	(-1,113)	(-72,115)	(46,22)	(61,63)	
L1D -56>	(45,5)	(43,4)	(64,32)	(-1,25)	(0,19)	(3,1)	(47,1)	(-73,14)	(54,24)	(46,19)	(-4,4)	(26,1)	(-2,122)	(112,7)	(33,1)	(56,6)	
L1D -55>	(-2,123)	(46,19)	(57,5)	(1,3)	(32,5)	(40,19)	(70,2)	(92,2)	(-1,4)	(-72,2)	(-74,1)	(0,1)	(69,1)	(64,8)	(42,8)	(53,1)	
L1D -54>	(1,6)	(64,5)	(-1,118)	(31,14)	(41,3)	(55,2)	(56,75)	(39,47)	(-2,2)	(0,2)	(4,7)	(29,1)	(-5,2)	(58,3)	(14,4)	(46,1)	
L1D -53>	(62,8)	(166,5)	(-77,6)	(53,12)	(56,1)	(64,67)	(0,6)	(51,7)	(43,1)	(42,17)	(4,7)	(-9,4)	(21,1)	(1,1)	(45,0)	(-76,39)	
L1D -52>	(64,64)	(60,1)	(-27,4)	(-7,87)	(-144,2)	(61,6)	(51,8)	(62,52)	(0,6)	(1,3)	(42,2)	(5,20)	(50,33)	(12,23)	(41,70)	(-9,6)	
L1D -51>	(64,4)	(30,30)	(11,3)	(53,8)	(-35,1)	(28,8)	(41,2)	(49,29)	(-2,7)	(-41,3)	(-8,75)	(-34,6)	(-1,44)	(39,25)	(0,8)	(36,16)	
L1D -50>	(7,1)	(-3,19)	(2,67)	(4,2)	(1,52)	(14,30)	(31,4)	(35,21)	(39,2)	(29,6)	(-9,7)	(-4,2)	(-5,7)	(3,10)	(27,2)	(-1,4)	
L1D -49>	(-8,1)	(0,7)	(2,4)	(-1,1)	(64,2)	(-2,1)	(-296,0)	(-9,0)	(30,2)	(13,0)	(-5,0)	(39,6)	(47,6)	(-10,69)	(89,0)	(4,0)	
L1D -48>	(-9,76)	(50,1)	(-31,0)	(58,0)	(61,0)	(112,0)	(53,2)	(1,0)	(3,0)	(64,0)	(380,2)	(0,1)	(-32,0)	(-10,1)	(-8,0)	(-1,9)	
L1D -47>	(0,76)	(15,0)	(2,8)	(48,0)	(3,1)	(10,0)	(34,1)	(49,1)	(57,4)	(64,0)	(26,0)	(1,1)	(47,0)	(58,0)	(7,0)	(55,0)	
L1D -46>	(4,2)	(41,45)	(-3,106)	(44,1)	(-13,2)	(1,55)	(-1,32)	(56,12)	(57,3)	(48,12)	(0,2)	(53,1)	(37,2)	(-5,4)	(27,2)	(54,2)	
L1D -45>	(-10,1)	(44,2)	(5,7)	(-5,27)	(9,31)	(45,67)	(4,10)	(22,4)	(-2,19)	(-14,7)	(26,13)	(-4,21)	(55,9)	(154,3)	(1,52)	(-9,30)	
L1D -44>	(1,64)	(84,6)	(42,4)	(25,2)	(33,4)	(-3,17)	(34,3)	(-35,10)	(-13,48)	(-29,2)	(44,4)	(4,1)	(46,20)	(64,5)	(5,23)	(-15,113)	
L1D -43>	(2,1)	(5,0)	(-11,1)	(54,1)	(47,83)	(23,9)	(-3,2)	(53,3)	(43,18)	(-1,6)	(1,21)	(45,21)	(-2,29)	(51,1)	(-4,3)	(11,0)	
L1D -42>	(-2,1)	(-3,16)	(2,117)	(24,8)	(14,1)	(42,53)	(-1,12)	(53,11)	(50,6)	(23,4)	(1,50)	(58,6)	(64,3)	(44,10)	(-8,2)	(62,1)	
L1D -41>	(-3,3)	(5,21)	(14,3)	(18,1)	(64,9)	(-6,1)	(52,8)	(0,1)	(43,16)	(40,110)	(-9,11)	(41,5)	(1,5)	(81,8)	(-1,3)	(9,30)	
L1D -40>	(4,100)	(81,5)	(-7,5)	(40,9)	(43,1)	(159,1)	(29,5)	(64,8)	(0,2)	(-9,3)	(112,13)	(39,24)	(9,5)	(52,15)	(1,8)	(37,1)	
L1D -39>	(-260,1)	(0,10)	(49,32)	(6,9)	(-6,11)	(-20,9)	(42,3)	(84,8)	(1,83)	(25,11)	(64,8)	(38,20)	(-78,4)	(39,11)	(-31,2)	(44,17)	
L1D -38>	(174,2)	(-5,71)	(26,1)	(44,4)	(0,4)	(2,6)	(-3,8)	(4,41)	(1,14)	(11,28)	(34,19)	(146,1)	(32,17)	(18,6)	(-6,2)	(27,1)	
L1D -37>	(2,68)	(1,71)	(34,91)	(5,19)	(-1,84)	(60,1)	(15,21)	(-22,39)	(-2,19)	(40,12)	(64,14)	(0,55)	(36,112)	(14,49)	(27,19)	(35,11)	
L1D -36>	(5,12)	(40,43)	(25,85)	(-1,114)	(26,12)	(1,16)	(-3,44)	(-4,5)	(2,42)	(13,13)	(9,3)	(10,11)	(46,9)	(33,1)	(-9,2)	(-23,99)	
L1D -35>	(-3,119)	(1,6)	(24,2)	(35,5)	(64,1)	(29,1)	(0,1)	(34,2)	(-5,12)	(10,4)	(6,1)	(-73,0)	(21,8)	(9,0)	(13,0)	(-1,61)	
L1D -34>	(0,116)	(2,7)	(24,8)	(34,47)	(10,5)	(-7,22)	(-4,22)	(1,73)	(4,4)	(-128,1)	(72,3)	(-25,21)	(32,28)	(11,2)	(-11,2)	(-3,3)	
L1D -33>	(1,28)	(-26,2)	(39,1)	(19,1)	(22,0)	(32,7)	(31,0)	(2,1)	(34,1)	(-1,3)	(-8,3)	(37,124)	(23,0)	(64,4)	(-3,3)	(10,4)	
L1D -32>	(-1,13)	(33,7)	(-2,22)	(41,41)	(292,14)	(4,7)	(112,20)	(22,29)	(-27,70)	(9,6)	(31,11)	(1,17)	(36,16)	(28,93)	(3,1)	(0,17)	
L1D -31>	(1,12)	(-3,71)	(5,6)	(7,10)	(-5,34)	(27,2)	(4,22)	(-28,13)	(9,11)	(-4,1)	(64,2)	(32,10)	(30,11)	(0,38)	(-8,1)	(-6,1)	
L1D -30>	(-6,1)	(19,118)	(10,3)	(2,2)	(20,4)	(-5,25)	(39,2)	(3,12)	(28,1)	(-1,6)	(8,3)	(7,4)	(4,4)	(-29,2)	(-4,9)	(0,1)	
L1D -29>	(29,6)	(1,50)	(28,4)	(35,18)	(18,4)	(9,8)	(6,1)	(27,10)	(64,4)	(-70,16)	(19,22)	(2,6)	(7,9)	(-30,85)	(59,16)	(0,28)	
L1D -28>	(-4,24)	(1,79)	(0,50)	(18,9)	(7,6)	(16,2)	(-3,1)	(-31,10)	(12,54)	(2,29)	(31,12)	(-2,13)	(-70,12)	(59,14)	(-319,53)	(-320,52)	
L1D -27>	(12,13)	(59,8)	(1,21)	(2,73)	(-70,6)	(-3,8)	(10,20)	(5,50)	(7,9)	(-2,1)	(3,109)	(13,1)	(20,2)	(64,7)	(4,100)	(0,11)	
L1D -26>	(64,3)	(-10,12)	(1,110)	(14,1)	(-20,2)	(0,8)	(15,3)	(23,2)	(-2,20)	(-6,6)	(5,31)	(22,5)	(-1,10)	(-181,1)	(50,1)	(4,30)	
L1D -25>	(59,10)	(-10,37)	(10,1)	(-19,11)	(-70,7)	(4,24)	(24,13)	(9,103)	(12,16)	(22,46)	(-1,15)	(1,17)	(35,4)	(31,21)	(-3,22)	(6,24)	
L1D -24>	(24,25)	(12,105)	(4,7)	(0,6)	(-18,1)	(13,22)	(6,26)	(5,6)	(-4,88)	(25,6)	(8,63)	(-2,13)	(7,28)	(34,7)	(3,48)	(1,6)	
L1D -23>	(-4,36)	(3,1)	(25,14)	(1,126)	(-162,6)	(26,7)	(19,56)	(-2,13)	(-70,19)	(59,42)	(27,11)	(0,9)	(118,12)	(-163,7)	(23,11)	(24,12)	
L1D -22>	(4,47)	(1,44)	(17,1)	(22,4)	(-4,7)	(5,24)	(25,22)	(16,5)	(36,8)	(23,37)	(-9,117)	(24,10)	(2,2)	(-40,1)	(30,46)	(-1,12)	
L1D -21>	(-1,70)	(-162,1)	(7,1)	(0,3)	(-11,13)	(1,6)	(15,14)	(-2,7)	(29,38)	(17,8)	(12,1)	(-10,9)	(2,2)	(21,5)	(-5,3)	(22,1)	
L1D -20>	(-1,43)	(-4,23)	(2,5)	(19,15)	(3,9)	(28,18)	(-3,11)	(-2,18)	(15,92)	(1,7)	(30,5)	(4,92)	(-163,1)	(-10,51)	(24,2)	(20,7)	
L1D -19>	(1,61)	(-9,21)	(-4,10)	(2,87)	(21,16)	(-6,1)	(4,6)	(5,6)	(-2,57)	(3,11)	(19,2)	(8,22)	(6,26)	(-13,39)	(-1,22)	(18,18)	
L1D -18>	(-4,30)	(19,33)	(18,10)	(-5,42)	(2,53)	(4,110)	(15,5)	(9,4)	(31,92)	(17,54)	(5,30)	(22,8)	(16,1)	(1,57)	(6,12)	(-3,42)	
L1D -17>	(22,32)	(-5,16)	(1,115)	(18,12)	(-2,4)	(17,7)	(14,3)	(-9,1)	(21,10)	(4,22)	(23,4)	(19,3)	(33,1)	(8,21)	(2,3)	(-4,6)	
L1D -16>	(-5,123)	(1,11)	(5,26)	(-3,6)	(3,32)	(6,2)	(-1,23)	(9,110)	(-6,61)	(26,3)	(27,4)	(7,7)	(63,46)	(20,5)	(144,11)	(16,11)	
L1D -15>	(64,1)	(1,5)	(-70,9)	(157,2)	(0,99)	(59,4)	(2,8)	(22,14)	(24,2)	(-11,9)	(-4,7)	(17,2)	(6,15)	(93,4)	(-6,8)	(-8,2)	
L1D -14>	(0,78)	(4,13)	(23,6)	(14,11)	(59,1)	(-3,17)	(15,2)	(-5,27)	(-12,5)	(56,32)	(3,17)	(1,17)	(6,1)	(2,104)	(10,19)	(101,5)	
L1D -13>	(1,7)	(28,27)	(11,1)	(3,7)	(-12,7)	(13,27)	(2,7)	(0,10)	(17,21)	(5,40)	(8,37)	(-5,43)	(-8,9)	(7,6)	(-9,91)	(4,59)	
L1D -12>	(13,8)	(2,54)	(-10,59)	(3,35)	(-5,106)	(1,126)	(0,25)	(23,17)	(-2,21)	(8,13)	(-18,1)	(-3,14)	(22,4)	(-6,32)	(4,11)	(12,5)	
L1D -11>	(2,113)	(47,41)	(-3,20)	(-9,126)	(11,51)	(5,105)	(-8,23)	(0,59)	(1,98)	(26,64)	(13,16)	(-4,51)	(-40,28)	(93,1)	(4,31)	(28,69)	
L1D -10>	(41,9)	(4,43)	(-2,8)	(7,4)	(77,7)	(9,30)	(10,41)	(14,15)	(28,38)	(57,1)	(2,98)	(8,8)	(0,9)	(1,14)	(25,11)	(5,12)	
L1D -9>	(10,53)	(-7,1)	(2,15)	(6,29)	(-9,10)	(61,58)	(0,27)	(-2,22)	(24,8)	(-1,106)	(9,117)	(18,27)	(1,31)	(-3,20)	(13,16)	(4,73)	
L1D -8>	(-1,106)	(1,106)	(7,1)	(14,32)	(6,39)	(20,20)	(3,10)	(93,32)	(11,24)	(-3,48)	(0,120)	(9,54)	(8,23)	(10,82)	(2,70)	(19,23)	
L1D -7>	(30,70)	(0,40)	(14,17)	(56,43)	(66,45)	(15,6)	(-2,10)	(7,18)	(2,8)	(-4,22)	(-1,47)	(1,18)	(-3,1)	(3,15)	(-7,14)	(-8,14)	
L1D -6>	(5,45)	(17,1)	(2,14)	(8,3)	(4,12)	(0,8)	(-6,4)	(41,22)	(3,6)	(-1,17)	(10,53)	(14,7)	(1,67)	(-3,15)	(22,7)	(-5,15)	
L1D -5>	(24,67)	(9,83)	(41,28)	(16,30)	(4,61)	(25,16)	(8,1)	(0,19)	(5,73)	(-6,31)	(1,28)	(-2,11)	(-11,21)	(11,13)	(-1,56)	(18,31)	
L1D -4>	(17,21)	(-4,115)	(0,61)	(8,44)	(1,41)	(11,1)	(3,26)	(25,20)	(7,31)	(-3,49)	(4,62)	(6,16)	(-6,68)	(-5,82)	(2,79)	(5,30)	
L1D -3>	(6,49)	(0,107)	(-4,1)	(20,48)	(4,102)	(-7,46)	(17,16)	(-6,71)	(31,10)	(-2,52)	(3,46)	(-1,60)	(13,67)	(-5,27)	(1,104)	(2,10)	
L1D -2>	(-30,1)	(49,16)	(4,29)	(1,19)	(5,23)	(2,19)	(-6,21)	(3,16)	(-5,33)	(-2,55)	(15,20)	(-8,7)	(0,82)	(-4,16)	(-7,13)	(-3,20)	
L1D -1>	(0,65)	(-6,36)	(-4,1)	(-17,13)	(89,11)	(2,58)	(4,93)	(-10,29)	(-3,31)	(7,14)	(-7,16)	(9,43)	(-2,31)	(-1,36)	(1,53)	(5,102)	
L1D 0>	(0,98)	(2,45)	(-177,2)	(-165,1)	(1,7)	(-176,5)	(-353,2)	(17,2)	(9,3)	(23,2)	(-7,7)	(-58,1)	(49,4)	(-3,2)	(5,2)	(88,46)	
L1D 1>	(-2,2)	(1,82)	(42,1)	(-6,1)	(2,9)	(-1,3)	(-15,1)	(7,2)	(3,6)	(36,1)	(-7,1)	(15,3)	(-164,1)	(4,3)	(0,4)	(6,2)	
L1D 2>	(0,116)	(2,115)	(1,27)	(-3,22)	(4,31)	(-43,1)	(18,7)	(8,7)	(-1,9)	(3,12)	(23,6)	(-14,16)	(5,6)	(-21,10)	(-2,15)	(21,9)	
L1D 3>	(-11,12)	(1,51)	(4,33)	(-3,52)	(6,21)	(8,20)	(5,20)	(3,61)	(17,25)	(2,90)	(-6,13)	(24,8)	(21,20)	(-14,1)	(-4,45)	(-10,60)	
L1D 4>	(1,18)	(-8,9)	(5,65)	(-5,17)	(7,1)	(-24,5)	(9,55)	(-35,15)	(-4,5)	(-46,15)	(-3,18)	(-12,16)	(-9,19)	(4,12)	(-7,17)	(2,18)	
L1D 5>	(4,63)	(1,6)	(2,14)	(44,5)	(-4,9)	(-325,1)	(5,10)	(35,29)	(-5,14)	(-7,10)	(7,4)	(31,17)	(9,85)	(3,4)	(-8,12)	(40,10)	
L1D 6>	(-8,22)	(6,24)	(2,65)	(-12,3)	(1,36)	(-2,13)	(9,34)	(-9,24)	(-13,49)	(-4,11)	(4,28)	(-6,26)	(7,1)	(3,7)	(11,52)	(-1,56)	
L1D 7>	(148,1)	(-4,115)	(4,48)	(-8,26)	(-10,80)	(0,23)	(-11,26)	(-1,94)	(-18,22)	(3,43)	(1,127)	(2,30)	(9,27)	(-7,91)	(-9,11)	(-6,14)	
L1D 8>	(43,22)	(-13,41)	(-21,1)	(1,94)	(-1,12)	(-27,50)	(3,6)	(-15,16)	(-10,17)	(-24,12)	(8,41)	(-17,49)	(-8,15)	(-20,11)	(-11,11)	(4,16)	
L1D 9>	(4,46)	(8,18)	(-30,11)	(-22,19)	(-31,11)	(-13,15)	(5,23)	(11,1)	(9,109)	(31,12)	(-12,45)	(-10,13)	(-26,15)	(40,16)	(-21,56)	(-9,4)	
L1D 10>	(-4,23)	(6,20)	(3,77)	(10,5)	(-1,9)	(0,31)	(-9,23)	(-10,29)	(-8,9)	(-11,3)	(7,1)	(-42,1)	(-3,6)	(-2,6)	(13,3)	(1,6)	
L1D 11>	(-16,83)	(3,9)	(15,1)	(0,55)	(23,29)	(-17,55)	(47,23)	(36,71)	(-18,3)	(-14,8)	(-5,8)	(5,10)	(-11,28)	(-10,63)	(-8,7)	(-9,39)	
L1D 12>	(-16,16)	(82,8)	(-25,11)	(-7,35)	(-18,20)	(-3,11)	(-1,10)	(-8,65)	(-9,10)	(6,17)	(-12,6)	(-11,4)	(-15,26)	(-2,75)	(0,24)	(-5,1)	
L1D 13>	(-4,93)	(-18,24)	(-13,1)	(-16,68)	(0,19)	(-34,53)	(-10,40)	(13,23)	(59,62)	(-8,9)	(40,39)	(-2,11)	(-23,14)	(-19,18)	(1,30)	(9,17)	
L1D 14>	(-16,66)	(0,120)	(-197,7)	(-19,32)	(-13,120)	(-4,8)	(-14,36)	(-11,37)	(23,58)	(-17,117)	(-50,1)	(-7,15)	(-8,17)	(36,2)	(7,22)	(-15,15)	
L1D 15>	(-17,25)	(-11,6)	(23,19)	(4,15)	(-16,32)	(-29,1)	(0,35)	(1,96)	(18,98)	(-25,96)	(-15,37)	(-5,45)	(-18,5)	(-26,78)	(-8,31)	(-6,13)	
L1D 16>	(332,15)	(3,1)	(-1,2)	(47,67)	(-9,8)	(0,33)	(1,15)	(23,20)	(-16,9)	(-7,13)	(112,3)	(-25,13)	(-11,13)	(72,6)	(2,3)	(-15,3)	
L1D 17>	(54,44)	(-11,60)	(4,34)	(6,22)	(1,38)	(-23,10)	(-10,1)	(-20,10)	(0,25)	(-5,56)	(8,47)	(-30,23)	(-13,44)	(-16,91)	(-15,23)	(-17,22)	
L1D 18>	(-12,17)	(-25,19)	(-8,9)	(-11,75)	(1,70)	(0,41)	(-27,1)	(-19,18)	(-18,11)	(-37,3)	(-13,7)	(-14,60)	(2,99)	(72,86)	(-24,3)	(-15,6)	
L1D 19>	(-24,1)	(-25,10)	(10,35)	(-44,6)	(-20,10)	(-18,67)	(-13,2)	(-3,83)	(-9,23)	(4,8)	(-19,2)	(3,7)	(8,29)	(13,68)	(-22,42)	(6,4)	
L1D 20>	(-16,78)	(-3,8)	(5,21)	(-23,1)	(-19,56)	(-21,13)	(-14,8)	(-18,3)	(-10,3)	(-1,6)	(-17,3)	(-27,2)	(-197,1)	(-51,4)	(-7,4)	(-20,3)	
L1D 21>	(-19,69)	(-18,45)	(-13,110)	(-17,89)	(-174,1)	(-23,16)	(-14,12)	(-12,51)	(8,31)	(-20,16)	(6,31)	(-25,8)	(-16,36)	(-15,87)	(-61,30)	(1,32)	
L1D 22>	(-1,17)	(-18,124)	(-12,27)	(1,14)	(-24,111)	(4,20)	(-17,30)	(-28,22)	(-23,13)	(3,10)	(-13,18)	(8,33)	(0,1)	(-8,46)	(-19,32)	(-11,9)	
L1D 23>	(4,100)	(-1,24)	(2,56)	(-20,4)	(15,11)	(-24,8)	(-23,15)	(-13,6)	(-15,5)	(-22,5)	(-18,7)	(1,13)	(3,22)	(-17,29)	(-2,1)	(-19,26)	
L1D 24>	(-18,17)	(-8,36)	(-30,4)	(-19,38)	(-4,13)	(-56,18)	(-57,4)	(-21,1)	(0,16)	(1,107)	(-11,14)	(-24,5)	(-32,14)	(-22,20)	(3,39)	(-15,27)	
L1D 25>	(-21,68)	(-19,75)	(-39,1)	(-35,14)	(56,27)	(-178,16)	(-20,63)	(-12,57)	(-15,119)	(-28,8)	(-18,94)	(-26,20)	(-3,6)	(-133,13)	(-27,10)	(2,64)	
L1D 26>	(-25,31)	(0,17)	(2,57)	(-4,3)	(1,34)	(-7,12)	(-28,10)	(-26,9)	(-14,1)	(-3,40)	(-2,2)	(-8,5)	(-12,13)	(-15,109)	(-9,3)	(-20,38)	
L1D 27>	(-25,5)	(8,8)	(-28,24)	(-35,2)	(-30,3)	(-15,97)	(-3,8)	(-16,57)	(0,8)	(-9,5)	(-4,3)	(-8,6)	(-5,3)	(-1,4)	(-24,4)	(-12,3)	
L1D 28>	(-30,89)	(-8,1)	(-24,1)	(-347,1)	(2,0)	(0,0)	(120,0)	(-10,2)	(-28,6)	(-21,2)	(-7,2)	(16,0)	(-27,0)	(1,0)	(76,0)	(-56,0)	
L1D 29>	(6,5)	(-21,112)	(-7,1)	(-15,11)	(-4,7)	(-3,5)	(-31,1)	(-22,3)	(8,0)	(9,0)	(0,1)	(-12,3)	(-25,2)	(-6,5)	(5,0)	(-32,1)	
L1D 30>	(-31,3)	(-32,2)	(-9,10)	(-33,117)	(-24,16)	(4,65)	(-13,18)	(-21,1)	(93,16)	(41,2)	(-30,4)	(-15,3)	(-2,2)	(13,8)	(-34,5)	(-26,27)	
L1D 31>	(40,87)	(82,1)	(-43,0)	(-324,1)	(41,24)	(-16,31)	(-1,3)	(-162,1)	(8,0)	(-12,10)	(-203,0)	(1,0)	(-11,2)	(-122,1)	(4,10)	(-14,0)	
L1D 32>	(-31,88)	(8,13)	(-19,4)	(-9,4)	(40,3)	(-24,14)	(-18,2)	(4,1)	(-8,4)	(0,5)	(-32,4)	(-91,1)	(-1,6)	(1,5)	(-374,3)	(-10,1)	
L1D 33>	(32,1)	(9,10)	(-1,14)	(-24,15)	(-12,12)	(-23,9)	(10,8)	(-407,5)	(-3,86)	(-37,27)	(0,16)	(-8,25)	(-32,5)	(-4,8)	(-15,6)	(-33,74)	
L1D 34>	(-19,3)	(-32,26)	(-36,71)	(-10,21)	(1,15)	(-34,15)	(-21,12)	(-20,7)	(-1,7)	(-33,95)	(-23,5)	(-9,7)	(16,1)	(26,6)	(-22,3)	(-8,2)	
L1D 35>	(41,70)	(-24,1)	(4,3)	(0,14)	(-12,2)	(-243,1)	(8,1)	(-8,5)	(40,2)	(5,9)	(-6,0)	(-26,1)	(-35,0)	(-34,15)	(-202,1)	(-14,2)	
L1D 36>	(40,32)	(4,82)	(-122,0)	(-43,4)	(-15,0)	(-8,7)	(3,2)	(-35,9)	(0,2)	(6,0)	(-31,2)	(-30,2)	(-36,2)	(-34,9)	(-1,2)	(-37,0)	
L1D 37>	(-35,74)	(-36,1)	(10,0)	(5,0)	(41,0)	(-14,1)	(8,0)	(-38,2)	(-13,0)	(-8,0)	(-45,1)	(4,0)	(-40,0)	(3,0)	(-5,1)	(6,0)	
L1D 38>	(1,59)	(2,26)	(-44,12)	(-38,21)	(4,24)	(-49,7)	(41,102)	(-1,87)	(-8,97)	(-40,15)	(-26,1)	(5,14)	(-23,9)	(-24,56)	(-7,10)	(40,94)	
L1D 39>	(-10,15)	(-8,83)	(40,21)	(-40,53)	(-4,26)	(-1,25)	(41,42)	(-49,3)	(-9,6)	(0,5)	(-14,6)	(9,1)	(4,11)	(12,2)	(100,1)	(-2,7)	
L1D 40>	(41,76)	(-287,0)	(5,11)	(-38,0)	(-283,0)	(-1,0)	(9,3)	(-40,3)	(-8,0)	(-202,0)	(-121,0)	(40,1)	(-162,0)	(-9,0)	(4,0)	(0,2)	
L1D 41>	(40,86)	(-203,1)	(2,0)	(-243,1)	(-41,0)	(4,14)	(-162,0)	(-122,0)	(-11,0)	(-324,3)	(-284,1)	(-43,2)	(-81,2)	(-36,0)	(9,0)	(-252,0)	
L1D 42>	(4,70)	(3,1)	(1,3)	(-8,7)	(7,2)	(-14,3)	(13,2)	(-42,7)	(0,108)	(-11,27)	(-45,7)	(2,59)	(-41,41)	(-24,27)	(8,4)	(-10,9)	
L1D 43>	(-42,91)	(-10,6)	(0,32)	(7,1)	(-1,0)	(1,2)	(-54,2)	(2,26)	(-5,0)	(-3,2)	(-7,1)	(8,3)	(107,0)	(-43,0)	(-4,1)	(-24,0)	
L1D 44>	(0,18)	(18,56)	(-6,2)	(-25,1)	(-39,1)	(-118,2)	(41,65)	(-14,1)	(40,71)	(2,19)	(4,8)	(-1,3)	(-8,10)	(-44,3)	(5,25)	(-2,3)	
L1D 45>	(-46,0)	(4,3)	(1,4)	(-41,4)	(0,94)	(-21,2)	(-9,2)	(-25,0)	(-31,0)	(40,33)	(-119,1)	(-1,0)	(-3,11)	(-12,6)	(15,0)	(-5,3)	
L1D 46>	(-48,4)	(4,7)	(26,118)	(-6,4)	(-83,2)	(-46,15)	(-68,7)	(-23,2)	(5,1)	(-14,19)	(8,3)	(-45,39)	(-7,122)	(-40,4)	(11,1)	(-15,3)	
L1D 47>	(4,15)	(0,2)	(-12,1)	(-46,49)	(23,1)	(-5,6)	(-37,3)	(-31,1)	(-24,4)	(-45,2)	(-1,5)	(10,1)	(-30,19)	(-47,100)	(-36,4)	(-34,1)	
L1D 48>	(0,116)	(-5,19)	(72,8)	(-46,13)	(-1,29)	(-8,4)	(-345,1)	(64,43)	(-48,79)	(-24,27)	(15,8)	(8,13)	(-4,6)	(14,31)	(-16,2)	(-49,49)	
L1D 49>	(-46,7)	(4,115)	(1,8)	(-48,92)	(-41,6)	(-49,5)	(-45,9)	(-50,41)	(-57,19)	(-43,9)	(64,10)	(5,2)	(-42,41)	(-5,2)	(-8,3)	(9,2)	
L1D 50>	(-31,2)	(-1,4)	(1,1)	(-4,2)	(-15,5)	(9,4)	(-50,5)	(0,2)	(-8,27)	(128,2)	(-133,1)	(4,2)	(8,2)	(-48,6)	(-36,75)	(-12,20)	
L1D 51>	(-9,1)	(-54,81)	(0,1)	(-8,1)	(-15,2)	(-11,1)	(-35,5)	(157,1)	(-5,12)	(-51,2)	(-24,21)	(-41,2)	(8,14)	(-17,6)	(-4,5)	(-34,5)	
L1D 52>	(-12,114)	(-36,7)	(-11,1)	(-61,1)	(-13,1)	(-62,3)	(24,2)	(-52,44)	(-8,3)	(32,1)	(128,3)	(8,28)	(10,3)	(76,0)	(-3,1)	(-55,10)	
L1D 53>	(-64,20)	(0,6)	(-53,107)	(-4,3)	(1,28)	(-3,1)	(5,24)	(-5,67)	(41,35)	(-62,7)	(4,27)	(-24,4)	(-54,7)	(-2,2)	(7,50)	(-8,16)	
L1D 54>	(-20,2)	(162,90)	(-71,105)	(-24,20)	(-8,57)	(-47,4)	(-22,5)	(-15,16)	(-13,7)	(-54,2)	(-12,1)	(102,1)	(-16,3)	(4,5)	(-1,10)	(1,1)	
L1D 55>	(64,4)	(-36,8)	(1,15)	(4,22)	(-7,7)	(-13,10)	(-43,3)	(-8,100)	(-76,13)	(-55,95)	(13,21)	(-1,12)	(-24,31)	(0,28)	(-63,1)	(-12,5)	
L1D 56>	(-48,103)	(-84,1)	(-55,20)	(4,2)	(-25,1)	(1,1)	(-58,1)	(-57,6)	(0,7)	(-28,0)	(56,0)	(-64,4)	(-56,17)	(64,0)	(-398,0)	(53,4)	
L1D 57>	(-57,89)	(60,3)	(-47,92)	(-7,2)	(-1,26)	(-48,4)	(-24,19)	(-18,12)	(-26,2)	(-2,3)	(-78,7)	(-44,1)	(-55,2)	(-10,9)	(2,12)	(-8,13)	
L1D 58>	(-2,25)	(-3,1)	(-5,10)	(-58,2)	(0,9)	(-16,17)	(-15,5)	(-56,5)	(-21,122)	(-10,3)	(-4,22)	(-95,2)	(-11,2)	(-47,24)	(113,1)	(8,1)	
L1D 59>	(4,13)	(-31,2)	(-47,2)	(-49,11)	(-60,21)	(-48,5)	(-30,3)	(-36,7)	(-59,1)	(-129,1)	(-68,5)	(-44,8)	(-34,2)	(-56,83)	(0,2)	(-58,53)	
L1D 60>	(8,25)	(9,14)	(1,18)	(131,17)	(-58,32)	(-4,30)	(80,4)	(-26,1)	(-403,58)	(72,5)	(-137,24)	(-402,27)	(57,22)	(-9,32)	(20,3)	(-10,103)	
L1D 61>	(-39,1)	(-62,110)	(-59,1)	(-403,0)	(-138,0)	(-306,0)	(-94,0)	(-7,0)	(0,5)	(-286,0)	(-95,2)	(-47,0)	(-8,0)	(-3,2)	(-60,0)	(4,0)	
L1D 62>	(0,117)	(-10,11)	(1,35)	(14,1)	(-2,1)	(-3,1)	(-58,1)	(82,0)	(-11,0)	(-12,0)	(-47,3)	(-132,26)	(-9,0)	(-48,0)	(-1,0)	(24,0)	
L1D 63>	(-47,84)	(0,4)	(-95,1)	(24,0)	(-40,0)	(-11,0)	(-54,0)	(-18,0)	(-7,0)	(3,0)	(-1,0)	(-133,1)	(-10,0)	(-44,1)	(-45,3)	(-64,2)	
L1D 64>	(-67,1)	(-24,18)	(19,9)	(0,18)	(-176,84)	(-8,4)	(-56,60)	(-240,5)	(-64,120)	(-16,21)	(23,11)	(-11,51)	(10,5)	(-9,3)	(-7,6)	(112,20)	
L1D 65>	(-67,94)	(-7,8)	(64,13)	(-64,6)	(21,2)	(-55,1)	(-9,2)	(-89,1)	(-4,0)	(119,0)	(-49,0)	(0,8)	(113,0)	(-3,0)	(-70,2)	(1,0)	
L1D 66>	(-68,80)	(-69,12)	(-7,2)	(4,100)	(-39,1)	(1,1)	(-8,3)	(-64,4)	(-13,0)	(-67,2)	(-72,0)	(-66,0)	(24,0)	(2,0)	(0,1)	(-83,0)	
L1D 67>	(-9,16)	(-7,27)	(-8,3)	(64,5)	(-68,35)	(197,7)	(-110,69)	(1,9)	(0,13)	(-70,4)	(-67,16)	(4,12)	(-71,23)	(-3,37)	(-64,3)	(-1,6)	
L1D 68>	(-62,124)	(-59,1)	(-67,64)	(-64,28)	(-2,1)	(9,2)	(0,1)	(7,1)	(128,1)	(20,1)	(-1,1)	(8,0)	(-4,0)	(-21,0)	(-66,1)	(-70,1)	
L1D 69>	(-6,14)	(-9,6)	(-18,3)	(-5,4)	(-7,3)	(0,10)	(4,27)	(3,27)	(-3,9)	(-4,11)	(-65,6)	(-39,7)	(-64,3)	(-67,95)	(16,2)	(-75,1)	
L1D 70>	(2,3)	(-6,27)	(-35,5)	(0,76)	(-59,7)	(8,4)	(1,2)	(-7,3)	(-40,22)	(-10,1)	(-5,4)	(-36,3)	(-52,2)	(-37,1)	(-70,3)	(-66,1)	
L1D 71>	(-101,0)	(7,5)	(-102,1)	(-95,10)	(3,0)	(-70,84)	(-68,0)	(121,1)	(-7,1)	(0,4)	(-80,0)	(-67,0)	(6,0)	(-71,7)	(20,0)	(-40,3)	
L1D 72>	(-68,14)	(4,70)	(-74,24)	(-59,1)	(-64,44)	(-71,91)	(-66,73)	(-72,11)	(-2,47)	(-95,7)	(-8,11)	(-73,11)	(-60,5)	(-67,43)	(-70,16)	(-53,2)	
L1D 73>	(0,50)	(20,3)	(-9,114)	(-90,11)	(-95,4)	(-64,12)	(-1,4)	(-72,31)	(-89,114)	(1,13)	(54,1)	(2,19)	(-7,63)	(-81,4)	(-75,1)	(-73,2)	
L1D 74>	(-11,18)	(-83,32)	(4,39)	(0,122)	(-95,6)	(20,7)	(54,8)	(-81,40)	(-56,5)	(2,90)	(-84,11)	(-9,72)	(-82,11)	(-7,7)	(-2,1)	(-8,16)	
L1D 75>	(-64,24)	(4,16)	(1,3)	(-9,65)	(0,27)	(-70,3)	(-8,7)	(-4,1)	(-74,59)	(52,9)	(-72,10)	(-65,5)	(2,45)	(-81,82)	(-3,39)	(7,10)	
L1D 76>	(-82,27)	(-30,35)	(-2,35)	(40,45)	(-64,103)	(0,104)	(-78,9)	(4,61)	(-81,6)	(8,1)	(41,12)	(-75,56)	(-1,91)	(5,12)	(-4,6)	(-68,19)	
L1D 77>	(-79,20)	(8,1)	(51,0)	(0,1)	(-44,0)	(4,98)	(-76,1)	(-72,1)	(52,0)	(5,0)	(-78,9)	(-81,11)	(-80,30)	(-5,1)	(-69,0)	(-59,0)	
L1D 78>	(1,2)	(0,11)	(-9,2)	(-68,4)	(4,28)	(-86,13)	(-78,90)	(-128,1)	(-64,1)	(9,2)	(-4,1)	(-77,27)	(-14,3)	(-261,11)	(-81,1)	(117,1)	
L1D 79>	(41,4)	(-78,103)	(4,19)	(0,7)	(-15,29)	(-8,4)	(12,4)	(48,2)	(-79,3)	(-89,4)	(-4,1)	(-262,5)	(-87,1)	(-186,2)	(107,2)	(8,5)	
L1D 80>	(-8,14)	(-4,5)	(-84,13)	(9,116)	(8,7)	(48,5)	(41,2)	(-181,4)	(-80,2)	(-16,83)	(-3,4)	(-140,2)	(5,10)	(-73,5)	(-64,6)	(47,16)	
L1D 81>	(52,2)	(-81,37)	(40,109)	(56,22)	(53,3)	(0,9)	(47,11)	(60,2)	(41,14)	(4,6)	(-4,13)	(-41,31)	(-121,2)	(-162,1)	(-2,6)	(-40,25)	
[...]
L1D 474>	(-107,2)	(1,0)	(1,0)	(1,0)	(1,0)	(1,0)	(1,0)	(1,0)	(1,0)	(1,0)	(1,0)	(1,0)	(1,0)	(1,0)	(1,0)	(1,0)	
L1D 475>	(-110,1)	(-180,3)	(1,0)	(1,0)	(1,0)	(1,0)	(1,0)	(1,0)	(1,0)	(1,0)	(1,0)	(1,0)	(1,0)	(1,0)	(1,0)	(1,0)	
L1D 476>	(-200,19)	(-398,1)	(-85,1)	(-5,1)	(1,0)	(1,0)	(1,0)	(1,0)	(1,0)	(1,0)	(1,0)	(1,0)	(1,0)	(1,0)	(1,0)	(1,0)	
L1D 477>	(-160,1)	(1,0)	(1,0)	(1,0)	(1,0)	(1,0)	(1,0)	(1,0)	(1,0)	(1,0)	(1,0)	(1,0)	(1,0)	(1,0)	(1,0)	(1,0)	
L1D 478>	(3,1)	(1,0)	(1,0)	(1,0)	(1,0)	(1,0)	(1,0)	(1,0)	(1,0)	(1,0)	(1,0)	(1,0)	(1,0)	(1,0)	(1,0)	(1,0)	
L1D 479>	(-218,1)	(-216,1)	(1,0)	(1,0)	(1,0)	(1,0)	(1,0)	(1,0)	(1,0)	(1,0)	(1,0)	(1,0)	(1,0)	(1,0)	(1,0)	(1,0)	
L1D 480>	(-224,1)	(-32,5)	(-344,1)	(-359,1)	(-480,18)	(-409,28)	(-472,2)	(1,0)	(1,0)	(1,0)	(1,0)	(1,0)	(1,0)	(1,0)	(1,0)	(1,0)	
L1D 481>	(1,0)	(1,0)	(1,0)	(1,0)	(1,0)	(1,0)	(1,0)	(1,0)	(1,0)	(1,0)	(1,0)	(1,0)	(1,0)	(1,0)	(1,0)	(1,0)	
L1D 482>	(-193,1)	(-117,1)	(-119,2)	(1,0)	(1,0)	(1,0)	(1,0)	(1,0)	(1,0)	(1,0)	(1,0)	(1,0)	(1,0)	(1,0)	(1,0)	(1,0)	
L1D 483>	(1,0)	(1,0)	(1,0)	(1,0)	(1,0)	(1,0)	(1,0)	(1,0)	(1,0)	(1,0)	(1,0)	(1,0)	(1,0)	(1,0)	(1,0)	(1,0)	
L1D 484>	(-192,1)	(1,0)	(1,0)	(1,0)	(1,0)	(1,0)	(1,0)	(1,0)	(1,0)	(1,0)	(1,0)	(1,0)	(1,0)	(1,0)	(1,0)	(1,0)	
L1D 485>	(11,2)	(-218,1)	(-192,1)	(1,0)	(1,0)	(1,0)	(1,0)	(1,0)	(1,0)	(1,0)	(1,0)	(1,0)	(1,0)	(1,0)	(1,0)	(1,0)	
L1D 486>	(1,0)	(1,0)	(1,0)	(1,0)	(1,0)	(1,0)	(1,0)	(1,0)	(1,0)	(1,0)	(1,0)	(1,0)	(1,0)	(1,0)	(1,0)	(1,0)	
L1D 487>	(1,0)	(1,0)	(1,0)	(1,0)	(1,0)	(1,0)	(1,0)	(1,0)	(1,0)	(1,0)	(1,0)	(1,0)	(1,0)	(1,0)	(1,0)	(1,0)	
L1D 488>	(-16,1)	(-128,1)	(1,0)	(1,0)	(1,0)	(1,0)	(1,0)	(1,0)	(1,0)	(1,0)	(1,0)	(1,0)	(1,0)	(1,0)	(1,0)	(1,0)	
L1D 489>	(1,0)	(1,0)	(1,0)	(1,0)	(1,0)	(1,0)	(1,0)	(1,0)	(1,0)	(1,0)	(1,0)	(1,0)	(1,0)	(1,0)	(1,0)	(1,0)	
L1D 490>	(-88,1)	(1,0)	(1,0)	(1,0)	(1,0)	(1,0)	(1,0)	(1,0)	(1,0)	(1,0)	(1,0)	(1,0)	(1,0)	(1,0)	(1,0)	(1,0)	
L1D 491>	(1,0)	(1,0)	(1,0)	(1,0)	(1,0)	(1,0)	(1,0)	(1,0)	(1,0)	(1,0)	(1,0)	(1,0)	(1,0)	(1,0)	(1,0)	(1,0)	
L1D 492>	(1,0)	(1,0)	(1,0)	(1,0)	(1,0)	(1,0)	(1,0)	(1,0)	(1,0)	(1,0)	(1,0)	(1,0)	(1,0)	(1,0)	(1,0)	(1,0)	
L1D 493>	(11,1)	(1,0)	(1,0)	(1,0)	(1,0)	(1,0)	(1,0)	(1,0)	(1,0)	(1,0)	(1,0)	(1,0)	(1,0)	(1,0)	(1,0)	(1,0)	
L1D 494>	(-218,1)	(1,0)	(1,0)	(1,0)	(1,0)	(1,0)	(1,0)	(1,0)	(1,0)	(1,0)	(1,0)	(1,0)	(1,0)	(1,0)	(1,0)	(1,0)	
L1D 495>	(1,0)	(1,0)	(1,0)	(1,0)	(1,0)	(1,0)	(1,0)	(1,0)	(1,0)	(1,0)	(1,0)	(1,0)	(1,0)	(1,0)	(1,0)	(1,0)	
L1D 496>	(-148,1)	(1,0)	(1,0)	(1,0)	(1,0)	(1,0)	(1,0)	(1,0)	(1,0)	(1,0)	(1,0)	(1,0)	(1,0)	(1,0)	(1,0)	(1,0)	
L1D 497>	(1,0)	(1,0)	(1,0)	(1,0)	(1,0)	(1,0)	(1,0)	(1,0)	(1,0)	(1,0)	(1,0)	(1,0)	(1,0)	(1,0)	(1,0)	(1,0)	
L1D 498>	(-182,1)	(1,0)	(1,0)	(1,0)	(1,0)	(1,0)	(1,0)	(1,0)	(1,0)	(1,0)	(1,0)	(1,0)	(1,0)	(1,0)	(1,0)	(1,0)	
L1D 499>	(-405,1)	(11,1)	(1,0)	(1,0)	(1,0)	(1,0)	(1,0)	(1,0)	(1,0)	(1,0)	(1,0)	(1,0)	(1,0)	(1,0)	(1,0)	(1,0)	
L1D 500>	(1,0)	(1,0)	(1,0)	(1,0)	(1,0)	(1,0)	(1,0)	(1,0)	(1,0)	(1,0)	(1,0)	(1,0)	(1,0)	(1,0)	(1,0)	(1,0)	
L1D 501>	(1,0)	(1,0)	(1,0)	(1,0)	(1,0)	(1,0)	(1,0)	(1,0)	(1,0)	(1,0)	(1,0)	(1,0)	(1,0)	(1,0)	(1,0)	(1,0)	
L1D 502>	(1,0)	(1,0)	(1,0)	(1,0)	(1,0)	(1,0)	(1,0)	(1,0)	(1,0)	(1,0)	(1,0)	(1,0)	(1,0)	(1,0)	(1,0)	(1,0)	
L1D 503>	(1,0)	(1,0)	(1,0)	(1,0)	(1,0)	(1,0)	(1,0)	(1,0)	(1,0)	(1,0)	(1,0)	(1,0)	(1,0)	(1,0)	(1,0)	(1,0)	
L1D 504>	(-375,6)	(1,0)	(1,0)	(1,0)	(1,0)	(1,0)	(1,0)	(1,0)	(1,0)	(1,0)	(1,0)	(1,0)	(1,0)	(1,0)	(1,0)	(1,0)	
L1D 505>	(1,0)	(1,0)	(1,0)	(1,0)	(1,0)	(1,0)	(1,0)	(1,0)	(1,0)	(1,0)	(1,0)	(1,0)	(1,0)	(1,0)	(1,0)	(1,0)	
L1D 506>	(1,0)	(1,0)	(1,0)	(1,0)	(1,0)	(1,0)	(1,0)	(1,0)	(1,0)	(1,0)	(1,0)	(1,0)	(1,0)	(1,0)	(1,0)	(1,0)	
L1D 507>	(1,0)	(1,0)	(1,0)	(1,0)	(1,0)	(1,0)	(1,0)	(1,0)	(1,0)	(1,0)	(1,0)	(1,0)	(1,0)	(1,0)	(1,0)	(1,0)	
L1D 508>	(1,0)	(1,0)	(1,0)	(1,0)	(1,0)	(1,0)	(1,0)	(1,0)	(1,0)	(1,0)	(1,0)	(1,0)	(1,0)	(1,0)	(1,0)	(1,0)	
L1D 509>	(1,0)	(1,0)	(1,0)	(1,0)	(1,0)	(1,0)	(1,0)	(1,0)	(1,0)	(1,0)	(1,0)	(1,0)	(1,0)	(1,0)	(1,0)	(1,0)	
L1D 510>	(1,0)	(1,0)	(1,0)	(1,0)	(1,0)	(1,0)	(1,0)	(1,0)	(1,0)	(1,0)	(1,0)	(1,0)	(1,0)	(1,0)	(1,0)	(1,0)	
L1D 511>	(1,0)	(1,0)	(1,0)	(1,0)	(1,0)	(1,0)	(1,0)	(1,0)	(1,0)	(1,0)	(1,0)	(1,0)	(1,0)	(1,0)	(1,0)	(1,0)	

L2C -64>	(1,156)	(-3,7)	(-1,16)	(11,16)	(-2,17)	(-62,1)	(8,6)	(-13,1)	(3,18)	(0,3)	(-24,2)	(54,1)	(9,18)	(4,6)	(2,46)	(-48,1)	
L2C -63>	(2,1)	(3,1)	(1,0)	(1,0)	(1,0)	(1,0)	(1,0)	(1,0)	(1,0)	(1,0)	(1,0)	(1,0)	(1,0)	(1,0)	(1,0)	(1,0)	
L2C -62>	(-1,4)	(2,1)	(3,2)	(1,0)	(1,0)	(1,0)	(1,0)	(1,0)	(1,0)	(1,0)	(1,0)	(1,0)	(1,0)	(1,0)	(1,0)	(1,0)	
L2C -61>	(-1,4)	(-2,1)	(2,1)	(1,0)	(1,0)	(1,0)	(1,0)	(1,0)	(1,0)	(1,0)	(1,0)	(1,0)	(1,0)	(1,0)	(1,0)	(1,0)	
L2C -60>	(2,1)	(1,3)	(-1,3)	(1,0)	(1,0)	(1,0)	(1,0)	(1,0)	(1,0)	(1,0)	(1,0)	(1,0)	(1,0)	(1,0)	(1,0)	(1,0)	
L2C -59>	(47,1)	(27,1)	(14,1)	(1,3)	(11,4)	(5,1)	(3,1)	(-1,1)	(1,0)	(1,0)	(1,0)	(1,0)	(1,0)	(1,0)	(1,0)	(1,0)	
L2C -58>	(47,1)	(-1,1)	(4,1)	(11,16)	(1,2)	(43,1)	(49,1)	(12,1)	(35,1)	(10,1)	(59,1)	(1,0)	(1,0)	(1,0)	(1,0)	(1,0)	
L2C -57>	(1,5)	(11,33)	(15,2)	(16,1)	(22,2)	(43,1)	(55,3)	(39,1)	(44,2)	(1,0)	(1,0)	(1,0)	(1,0)	(1,0)	(1,0)	(1,0)	
L2C -56>	(1,8)	(11,183)	(46,1)	(2,1)	(23,1)	(33,5)	(22,12)	(54,1)	(-1,5)	(38,1)	(9,1)	(44,3)	(13,1)	(55,1)	(48,1)	(6,1)	
L2C -55>	(10,6)	(-1,4)	(32,3)	(1,7)	(6,1)	(21,6)	(11,4)	(18,1)	(46,1)	(2,1)	(42,1)	(43,1)	(12,1)	(51,1)	(9,1)	(55,1)	
L2C -54>	(1,12)	(59,1)	(54,1)	(36,1)	(42,1)	(55,2)	(33,1)	(-2,1)	(11,2)	(1,0)	(1,0)	(1,0)	(1,0)	(1,0)	(1,0)	(1,0)	
L2C -53>	(1,7)	(34,1)	(22,1)	(16,1)	(11,1)	(53,1)	(48,1)	(39,1)	(-7,1)	(26,1)	(-4,1)	(8,1)	(50,1)	(1,0)	(1,0)	(1,0)	
L2C -52>	(8,1)	(40,1)	(13,2)	(11,3)	(2,7)	(1,9)	(41,1)	(50,1)	(5,1)	(17,2)	(27,1)	(36,1)	(42,1)	(1,0)	(1,0)	(1,0)	
L2C -51>	(2,3)	(46,1)	(1,4)	(48,2)	(11,3)	(20,2)	(-1,1)	(42,1)	(5,1)	(37,1)	(7,1)	(10,1)	(29,2)	(-8,1)	(19,1)	(61,1)	
L2C -50>	(48,1)	(1,8)	(34,2)	(15,1)	(49,1)	(41,1)	(-4,1)	(37,1)	(28,1)	(5,1)	(38,1)	(22,1)	(40,1)	(11,2)	(7,1)	(10,1)	
L2C -49>	(9,1)	(1,11)	(0,2)	(22,1)	(41,1)	(11,3)	(27,2)	(19,1)	(54,1)	(6,1)	(31,1)	(3,1)	(15,1)	(29,1)	(-5,1)	(28,1)	
L2C -48>	(1,11)	(40,3)	(6,2)	(11,6)	(24,2)	(8,1)	(-8,2)	(-11,1)	(3,2)	(20,1)	(2,3)	(28,1)	(50,1)	(37,1)	(-2,1)	(1,0)	
L2C -47>	(11,14)	(1,10)	(3,2)	(12,1)	(57,2)	(30,1)	(55,1)	(-11,3)	(39,1)	(40,2)	(13,3)	(2,1)	(24,2)	(25,2)	(44,1)	(-1,2)	
L2C -46>	(1,2)	(11,15)	(-1,3)	(9,1)	(5,1)	(0,1)	(16,1)	(42,1)	(21,2)	(18,2)	(-5,1)	(27,1)	(36,1)	(39,2)	(2,2)	(-11,1)	
L2C -45>	(1,6)	(11,168)	(0,4)	(33,1)	(10,1)	(5,2)	(-8,2)	(25,1)	(22,9)	(24,1)	(-1,10)	(39,1)	(-6,2)	(-3,1)	(-11,1)	(12,2)	
L2C -44>	(43,1)	(1,5)	(-1,5)	(10,19)	(-3,2)	(42,1)	(48,1)	(46,2)	(56,1)	(-11,7)	(11,13)	(21,1)	(32,2)	(2,3)	(12,2)	(-5,4)	
L2C -43>	(14,3)	(1,10)	(16,1)	(5,1)	(37,1)	(7,2)	(11,6)	(-1,2)	(4,1)	(-9,1)	(21,2)	(15,1)	(34,1)	(44,1)	(54,1)	(-12,1)	
L2C -42>	(-3,1)	(52,1)	(2,4)	(23,1)	(1,4)	(38,1)	(33,1)	(17,3)	(21,1)	(-8,1)	(11,3)	(10,2)	(34,1)	(-5,2)	(5,3)	(-1,2)	
L2C -41>	(1,13)	(3,1)	(0,1)	(31,1)	(53,1)	(17,1)	(-1,3)	(21,2)	(20,1)	(5,9)	(11,2)	(10,9)	(8,2)	(50,1)	(9,2)	(16,2)	
L2C -40>	(3,1)	(41,1)	(16,3)	(10,5)	(5,2)	(28,1)	(1,5)	(17,2)	(11,2)	(18,1)	(23,1)	(-3,1)	(22,1)	(30,2)	(15,1)	(55,1)	
L2C -39>	(5,1)	(1,7)	(16,1)	(40,1)	(20,1)	(44,2)	(28,2)	(27,1)	(18,1)	(13,1)	(33,1)	(10,1)	(2,1)	(25,1)	(15,2)	(4,2)	
L2C -38>	(39,2)	(4,1)	(1,9)	(25,2)	(10,5)	(38,1)	(26,1)	(-1,1)	(11,2)	(2,1)	(43,1)	(19,1)	(8,1)	(17,1)	(-4,2)	(5,1)	
L2C -37>	(21,2)	(2,1)	(-6,2)	(36,1)	(15,1)	(1,7)	(34,1)	(7,1)	(13,2)	(16,1)	(-8,1)	(47,1)	(-17,1)	(-2,1)	(25,1)	(8,3)	
L2C -36>	(23,1)	(4,2)	(16,2)	(2,5)	(11,10)	(-14,2)	(-3,1)	(1,10)	(10,3)	(30,1)	(25,3)	(5,3)	(-10,1)	(6,1)	(32,1)	(38,1)	
L2C -35>	(1,11)	(36,6)	(33,1)	(10,2)	(49,1)	(3,1)	(6,2)	(11,7)	(8,1)	(7,2)	(24,1)	(30,1)	(25,1)	(-1,2)	(12,7)	(27,1)	
L2C -34>	(51,1)	(5,5)	(35,1)	(11,124)	(-7,1)	(30,1)	(-16,2)	(10,2)	(22,15)	(-2,2)	(27,2)	(33,5)	(15,1)	(0,1)	(38,1)	(18,1)	
L2C -33>	(20,4)	(-1,5)	(34,2)	(1,11)	(-22,1)	(32,3)	(7,3)	(13,1)	(26,1)	(10,8)	(-11,6)	(-9,1)	(-2,3)	(11,11)	(2,4)	(4,2)	
L2C -32>	(-1,3)	(32,1)	(6,3)	(1,10)	(51,1)	(11,2)	(2,4)	(-8,1)	(0,1)	(34,3)	(4,2)	(7,1)	(46,1)	(22,2)	(54,2)	(12,2)	
L2C -31>	(1,13)	(0,2)	(5,8)	(-1,2)	(2,7)	(-8,2)	(26,1)	(11,4)	(30,2)	(17,2)	(24,2)	(4,2)	(27,2)	(40,1)	(12,2)	(-15,1)	
L2C -30>	(2,2)	(1,16)	(-8,2)	(26,2)	(-1,1)	(37,1)	(25,1)	(-4,2)	(42,1)	(11,2)	(28,2)	(5,5)	(-13,1)	(31,2)	(39,2)	(-10,1)	
L2C -29>	(0,2)	(5,3)	(1,15)	(11,2)	(30,3)	(-6,1)	(-18,1)	(-1,6)	(23,1)	(26,2)	(14,3)	(36,1)	(21,3)	(25,5)	(43,1)	(38,2)	
L2C -28>	(4,2)	(-8,3)	(11,6)	(9,3)	(-1,5)	(1,13)	(25,2)	(-19,2)	(-17,1)	(-15,1)	(-11,1)	(30,2)	(2,2)	(10,3)	(34,2)	(-5,1)	
L2C -27>	(1,10)	(-1,2)	(5,9)	(8,3)	(-15,1)	(29,1)	(46,2)	(10,6)	(48,2)	(3,2)	(6,2)	(-14,1)	(25,4)	(28,1)	(27,6)	(23,1)	
L2C -26>	(-24,2)	(1,4)	(10,3)	(12,1)	(-4,1)	(11,6)	(5,7)	(15,2)	(-13,1)	(14,1)	(-12,1)	(6,2)	(38,1)	(37,2)	(20,1)	(21,1)	
L2C -25>	(14,1)	(26,2)	(11,19)	(17,2)	(6,1)	(-15,1)	(-31,1)	(21,2)	(1,11)	(22,1)	(4,1)	(-11,3)	(10,9)	(25,2)	(0,5)	(3,1)	
L2C -24>	(5,8)	(1,17)	(2,7)	(8,1)	(-8,2)	(37,1)	(-12,1)	(11,9)	(28,1)	(-13,1)	(0,4)	(10,5)	(27,1)	(15,2)	(-27,1)	(20,3)	
L2C -23>	(1,14)	(25,3)	(14,5)	(22,4)	(-11,2)	(4,1)	(11,115)	(21,3)	(39,1)	(5,6)	(2,3)	(-1,8)	(-2,1)	(12,1)	(45,1)	(18,1)	
L2C -22>	(1,22)	(21,5)	(11,14)	(-12,4)	(10,23)	(20,2)	(-11,11)	(-1,7)	(33,4)	(-29,2)	(12,5)	(23,2)	(5,4)	(-3,1)	(50,1)	(-18,1)	
L2C -21>	(23,2)	(0,50)	(-14,2)	(2,15)	(15,7)	(1,26)	(5,12)	(-12,3)	(11,5)	(-24,1)	(22,2)	(-10,4)	(10,5)	(54,1)	(36,2)	(29,1)	
L2C -20>	(10,2)	(1,16)	(41,1)	(-21,4)	(11,10)	(-3,4)	(55,1)	(22,1)	(-16,2)	(-5,2)	(26,1)	(-24,1)	(2,4)	(15,4)	(-26,1)	(12,3)	
L2C -19>	(1,20)	(12,2)	(-16,3)	(-8,5)	(29,5)	(5,2)	(0,102)	(42,2)	(2,10)	(-21,1)	(17,2)	(19,12)	(37,2)	(13,6)	(21,3)	(-10,4)	
L2C -18>	(1,18)	(19,3)	(9,5)	(11,6)	(2,5)	(-33,2)	(5,5)	(-8,2)	(17,2)	(47,1)	(8,3)	(7,2)	(-41,1)	(32,3)	(-6,4)	(3,5)	
L2C -17>	(1,27)	(-8,2)	(-12,1)	(44,1)	(15,6)	(2,8)	(-2,2)	(-31,2)	(8,2)	(21,2)	(27,3)	(23,1)	(-3,3)	(0,13)	(11,3)	(26,2)	
L2C -16>	(1,34)	(14,5)	(17,6)	(0,11)	(4,5)	(10,3)	(16,3)	(18,1)	(20,4)	(2,2)	(12,2)	(9,2)	(5,9)	(-1,10)	(6,6)	(25,2)	
L2C -15>	(1,24)	(5,11)	(11,6)	(19,3)	(2,5)	(-1,14)	(9,1)	(-3,2)	(16,9)	(8,4)	(0,5)	(-2,2)	(6,2)	(17,6)	(20,2)	(10,4)	
L2C -14>	(1,27)	(15,4)	(11,17)	(-11,5)	(-1,8)	(-3,3)	(2,9)	(8,5)	(-2,1)	(13,1)	(16,2)	(-26,2)	(5,11)	(-30,1)	(7,5)	(10,7)	
L2C -13>	(1,27)	(5,5)	(14,5)	(0,29)	(25,4)	(9,4)	(39,2)	(11,5)	(-20,3)	(4,1)	(3,3)	(2,7)	(-8,8)	(-4,2)	(21,5)	(43,1)	
L2C -12>	(1,29)	(10,7)	(3,2)	(-21,4)	(11,149)	(34,3)	(5,3)	(4,3)	(2,11)	(7,2)	(-1,2)	(23,3)	(8,1)	(9,3)	(-12,2)	(39,1)	
L2C -11>	(1,44)	(4,8)	(8,9)	(5,23)	(11,7)	(-1,14)	(6,4)	(-11,25)	(9,3)	(41,2)	(-15,3)	(10,25)	(-22,2)	(12,9)	(2,10)	(0,1)	
L2C -10>	(1,51)	(6,4)	(2,14)	(19,3)	(-6,1)	(11,8)	(25,5)	(4,6)	(3,3)	(9,9)	(22,3)	(-1,4)	(-9,2)	(-35,2)	(8,24)	(10,11)	
L2C -9>	(5,19)	(17,5)	(10,15)	(1,47)	(9,67)	(-9,3)	(0,7)	(39,1)	(21,3)	(-1,6)	(-10,3)	(11,7)	(-17,4)	(-8,4)	(18,5)	(12,2)	
L2C -8>	(1,25)	(27,24)	(-2,1)	(-1,8)	(2,9)	(-10,4)	(7,8)	(9,5)	(18,2)	(5,13)	(10,12)	(30,2)	(0,10)	(8,220)	(-9,2)	(-13,3)	
L2C -7>	(1,27)	(8,11)	(-36,2)	(-1,9)	(26,3)	(4,2)	(-2,2)	(-16,2)	(9,6)	(0,3)	(-42,3)	(39,2)	(5,9)	(17,2)	(7,1)	(3,2)	
L2C -6>	(4,5)	(-10,2)	(-30,1)	(9,4)	(8,7)	(1,25)	(5,17)	(-4,5)	(-3,4)	(-2,2)	(43,2)	(38,3)	(0,5)	(10,9)	(32,2)	(-6,3)	
L2C -5>	(19,4)	(1,36)	(14,3)	(-45,2)	(10,15)	(8,6)	(0,26)	(9,1)	(-13,1)	(6,7)	(-1,11)	(2,5)	(16,4)	(-30,1)	(-2,8)	(5,40)	
L2C -4>	(1,41)	(2,29)	(-3,5)	(0,18)	(3,3)	(4,10)	(-18,4)	(5,17)	(-4,4)	(-1,10)	(-6,3)	(11,16)	(-29,1)	(10,7)	(16,4)	(31,2)	
L2C -3>	(1,132)	(6,9)	(15,5)	(0,11)	(2,50)	(10,17)	(-4,5)	(11,33)	(5,17)	(-1,20)	(-15,2)	(8,2)	(4,26)	(-17,2)	(-13,1)	(9,9)	
L2C -2>	(-1,1)	(0,13)	(2,6)	(1,244)	(-7,1)	(4,11)	(-18,2)	(6,1)	(11,1)	(17,1)	(13,0)	(-17,0)	(5,0)	(3,0)	(8,0)	(16,0)	
L2C -1>	(-57,1)	(-59,1)	(10,1)	(-13,0)	(-1,25)	(6,2)	(2,112)	(4,148)	(20,0)	(0,3)	(11,2)	(3,115)	(-62,0)	(-14,0)	(1,10)	(5,0)	
L2C 0>	(1,5)	(0,220)	(-9,13)	(-39,1)	(7,0)	(-1,6)	(21,0)	(19,0)	(-8,0)	(5,0)	(-2,0)	(17,0)	(15,0)	(-19,0)	(2,3)	(-3,0)	
L2C 1>	(1,146)	(30,1)	(-4,4)	(2,161)	(-3,16)	(5,4)	(3,200)	(0,11)	(-5,3)	(-2,14)	(-1,17)	(8,5)	(9,4)	(-6,1)	(10,3)	(12,1)	
L2C 2>	(-2,3)	(1,22)	(3,6)	(-61,0)	(-1,137)	(2,98)	(11,0)	(17,0)	(-42,0)	(-9,0)	(-5,0)	(-24,0)	(-4,0)	(-11,0)	(-19,1)	(-21,0)	
L2C 3>	(-1,227)	(-63,1)	(1,26)	(-16,2)	(31,0)	(3,18)	(2,3)	(4,0)	(-2,44)	(-30,0)	(15,1)	(16,0)	(11,0)	(-5,0)	(-37,0)	(0,0)	
L2C 4>	(1,4)	(-4,1)	(5,1)	(10,1)	(-17,0)	(-1,135)	(-2,215)	(2,14)	(15,0)	(-19,0)	(42,0)	(-7,0)	(26,0)	(-13,0)	(3,2)	(-25,1)	
L2C 5>	(-1,12)	(1,24)	(5,245)	(6,13)	(10,39)	(-26,3)	(11,1)	(-20,3)	(-10,4)	(2,6)	(-3,4)	(4,2)	(-11,11)	(-5,9)	(15,10)	(-21,9)	
L2C 6>	(5,49)	(1,31)	(4,11)	(2,14)	(-7,6)	(-6,4)	(10,6)	(35,1)	(21,3)	(-13,5)	(-2,52)	(-5,6)	(-9,7)	(25,3)	(-1,5)	(-4,2)	
L2C 7>	(1,26)	(-2,4)	(2,2)	(10,1)	(-51,1)	(31,1)	(-4,5)	(-31,1)	(-21,3)	(-17,3)	(-1,4)	(3,4)	(4,5)	(0,4)	(34,2)	(-32,1)	
L2C 8>	(0,192)	(1,77)	(2,28)	(-7,8)	(-8,55)	(-5,7)	(21,1)	(3,5)	(-2,10)	(-6,5)	(11,19)	(-10,5)	(-1,12)	(5,11)	(4,4)	(-18,4)	
L2C 9>	(1,139)	(11,74)	(-1,15)	(-10,7)	(-8,16)	(0,53)	(7,5)	(2,22)	(-12,1)	(-34,3)	(5,15)	(-16,3)	(-25,2)	(-5,3)	(16,3)	(-22,3)	
L2C 10>	(11,68)	(5,149)	(-15,7)	(-10,14)	(-11,26)	(1,114)	(15,8)	(-39,2)	(9,9)	(10,28)	(-3,5)	(7,5)	(-1,13)	(-16,3)	(-34,4)	(-14,5)	
L2C 11>	(11,138)	(-16,0)	(-54,1)	(-1,2)	(-56,14)	(-45,11)	(-34,9)	(-23,6)	(-12,7)	(22,5)	(-11,0)	(5,0)	(-55,1)	(-44,2)	(-33,2)	(-22,1)	
L2C 12>	(1,29)	(11,14)	(-13,5)	(-14,2)	(-9,2)	(2,12)	(-1,2)	(-19,2)	(-3,8)	(5,14)	(4,3)	(-11,5)	(-2,5)	(8,2)	(-5,1)	(-31,1)	
L2C 13>	(1,17)	(-1,8)	(8,2)	(0,3)	(10,2)	(2,2)	(-3,5)	(-11,4)	(12,4)	(-2,3)	(-14,1)	(-13,25)	(14,1)	(-22,5)	(5,11)	(-47,1)	
L2C 14>	(1,39)	(-6,4)	(-1,17)	(-15,3)	(-11,3)	(-14,2)	(-4,2)	(-2,9)	(5,7)	(0,1)	(-24,3)	(-16,2)	(14,2)	(-13,7)	(11,1)	(16,2)	
L2C 15>	(-9,5)	(11,3)	(1,34)	(-15,10)	(5,56)	(10,7)	(-2,3)	(-12,4)	(-28,5)	(29,3)	(-8,1)	(-20,8)	(3,5)	(-22,3)	(-16,7)	(-1,2)	
L2C 16>	(-24,3)	(2,8)	(1,28)	(-9,3)	(11,2)	(30,2)	(-16,6)	(28,1)	(5,15)	(-15,10)	(16,1)	(-1,7)	(-29,1)	(-21,4)	(-2,2)	(-10,1)	
L2C 17>	(-15,5)	(-12,2)	(1,12)	(5,13)	(-16,8)	(-6,1)	(10,3)	(32,1)	(-8,2)	(-17,10)	(2,26)	(-31,1)	(4,5)	(30,2)	(-1,11)	(-33,1)	
L2C 18>	(-11,2)	(5,8)	(1,14)	(-16,6)	(-19,2)	(-17,3)	(-49,1)	(12,1)	(-10,3)	(11,3)	(-2,5)	(-30,3)	(23,2)	(15,1)	(-41,1)	(3,2)	
L2C 19>	(-1,6)	(1,6)	(5,6)	(-19,61)	(-29,2)	(-2,2)	(-16,2)	(-47,1)	(-7,2)	(11,11)	(-18,6)	(-12,3)	(-25,2)	(-36,2)	(-21,10)	(2,10)	
L2C 20>	(-19,6)	(11,10)	(-17,2)	(1,18)	(10,1)	(15,3)	(-24,2)	(-15,2)	(-8,2)	(-32,3)	(-34,1)	(5,15)	(-9,2)	(2,3)	(-23,3)	(17,1)	
L2C 21>	(11,14)	(-11,3)	(14,2)	(1,12)	(-25,3)	(-21,39)	(-2,7)	(4,8)	(-23,1)	(5,6)	(-12,2)	(-10,5)	(-22,6)	(-29,1)	(24,1)	(-9,1)	
L2C 22>	(-34,4)	(-23,7)	(11,76)	(-44,5)	(-59,1)	(-17,1)	(4,3)	(-45,14)	(-56,16)	(1,9)	(3,1)	(-53,1)	(6,2)	(19,1)	(5,4)	(-12,4)	
L2C 23>	(0,3)	(5,1)	(-28,2)	(-29,1)	(1,8)	(-12,4)	(-32,2)	(-30,2)	(-10,4)	(-15,2)	(-27,1)	(2,5)	(-11,2)	(-1,1)	(-2,1)	(10,3)	
L2C 24>	(-15,1)	(1,11)	(5,3)	(-56,1)	(-5,2)	(-21,1)	(-22,3)	(-24,7)	(2,4)	(-28,1)	(-34,1)	(25,1)	(-12,2)	(-42,1)	(10,2)	(-4,2)	
L2C 25>	(1,12)	(-25,6)	(5,1)	(-15,2)	(-34,1)	(-2,3)	(-9,3)	(21,1)	(-17,5)	(-18,1)	(2,22)	(25,1)	(-35,2)	(20,2)	(-16,1)	(10,3)	
L2C 26>	(1,7)	(-20,3)	(2,4)	(6,3)	(-1,2)	(-3,3)	(3,2)	(10,2)	(15,2)	(11,2)	(-28,2)	(-51,2)	(-21,2)	(-11,1)	(4,1)	(5,9)	
L2C 27>	(1,8)	(-14,4)	(-39,2)	(2,2)	(-13,2)	(5,1)	(-1,2)	(-28,3)	(-3,2)	(-19,27)	(-24,1)	(18,1)	(-26,2)	(19,3)	(-17,2)	(-27,9)	
L2C 28>	(8,2)	(9,1)	(1,13)	(4,1)	(-1,3)	(10,4)	(3,1)	(-52,1)	(-25,1)	(-14,2)	(-27,1)	(-24,1)	(-45,1)	(-16,1)	(-38,2)	(0,1)	
L2C 29>	(1,11)	(5,3)	(-19,1)	(10,4)	(-33,2)	(-26,4)	(-2,2)	(-28,2)	(-25,2)	(-4,1)	(-45,2)	(-1,1)	(-7,2)	(-39,3)	(15,1)	(-8,2)	
L2C 30>	(-31,3)	(4,3)	(-33,3)	(-25,1)	(5,2)	(-24,1)	(-29,1)	(1,8)	(-2,3)	(-21,3)	(-18,3)	(2,3)	(-41,1)	(11,3)	(-1,2)	(-40,1)	
L2C 31>	(-1,2)	(5,8)	(1,4)	(-43,1)	(-6,2)	(3,2)	(-32,3)	(-29,1)	(-47,1)	(-9,1)	(-37,1)	(2,1)	(-4,2)	(-26,4)	(11,1)	(-23,2)	
L2C 32>	(-34,1)	(14,1)	(1,6)	(11,7)	(-11,2)	(-21,3)	(9,1)	(-12,1)	(-20,2)	(-51,1)	(-1,3)	(-28,3)	(-19,1)	(8,5)	(-2,1)	(5,5)	
L2C 33>	(1,7)	(-56,4)	(2,3)	(11,17)	(-21,1)	(-14,1)	(-17,1)	(-7,2)	(14,2)	(5,3)	(3,1)	(-25,1)	(-55,1)	(-16,1)	(-45,3)	(-26,1)	
L2C 34>	(1,6)	(2,4)	(-9,2)	(-23,1)	(-35,3)	(-21,3)	(-48,1)	(-11,1)	(-25,1)	(10,2)	(-32,1)	(-15,1)	(-33,3)	(-12,2)	(4,2)	(5,4)	
L2C 35>	(-14,1)	(-3,1)	(-34,1)	(6,2)	(1,7)	(2,2)	(-19,1)	(-20,1)	(15,2)	(3,1)	(-39,1)	(-11,1)	(5,3)	(-37,1)	(24,1)	(10,1)	
L2C 36>	(1,7)	(-27,1)	(4,1)	(-13,1)	(6,1)	(-35,3)	(5,3)	(13,1)	(-38,1)	(-40,2)	(-34,1)	(-4,1)	(-39,1)	(-1,1)	(-7,1)	(-22,1)	
L2C 37>	(4,1)	(-20,1)	(2,2)	(1,7)	(-14,1)	(-55,1)	(12,4)	(-33,2)	(-45,2)	(3,3)	(15,1)	(-15,1)	(26,1)	(-47,1)	(-13,1)	(-48,1)	
L2C 38>	(1,5)	(-23,1)	(-31,1)	(3,3)	(4,1)	(-53,1)	(-7,1)	(-32,1)	(5,3)	(-6,2)	(-24,1)	(-1,2)	(-9,1)	(-33,2)	(-20,1)	(10,2)	
L2C 39>	(-47,1)	(1,6)	(0,1)	(-2,4)	(10,3)	(-50,2)	(13,1)	(5,3)	(-30,2)	(-15,2)	(-22,1)	(-40,2)	(-46,1)	(-41,1)	(-19,1)	(-6,1)	
L2C 40>	(1,6)	(-3,1)	(-38,2)	(-22,1)	(-9,3)	(2,2)	(-41,1)	(-19,1)	(-34,1)	(5,2)	(-1,1)	(-14,1)	(10,1)	(-24,1)	(-31,1)	(6,1)	
L2C 41>	(10,1)	(-35,2)	(-27,1)	(-32,2)	(-39,1)	(-16,1)	(-11,4)	(1,2)	(-20,1)	(-24,2)	(-46,1)	(-13,1)	(11,4)	(4,1)	(-33,2)	(-30,1)	
L2C 42>	(-21,1)	(-28,1)	(1,3)	(11,1)	(-43,3)	(-27,1)	(-24,1)	(4,1)	(-19,1)	(-14,1)	(-4,1)	(-40,2)	(5,2)	(-49,1)	(10,1)	(0,1)	
L2C 43>	(-29,1)	(-23,1)	(0,1)	(1,2)	(-25,2)	(-20,1)	(-42,1)	(-32,1)	(-26,1)	(-33,2)	(-54,1)	(11,4)	(-44,2)	(-6,2)	(-1,4)	(4,1)	
L2C 44>	(3,1)	(-2,1)	(1,6)	(-22,2)	(-27,1)	(-36,1)	(-6,1)	(-11,1)	(-42,1)	(-45,3)	(11,4)	(-33,1)	(-9,1)	(-1,1)	(-24,1)	(-8,1)	
L2C 45>	(-40,1)	(-43,1)	(-52,1)	(-45,2)	(2,1)	(-56,1)	(5,1)	(-6,1)	(-1,2)	(1,1)	(11,1)	(-36,1)	(-11,1)	(-7,1)	(-2,1)	(-62,1)	
L2C 46>	(1,2)	(-43,1)	(-26,1)	(-38,1)	(-19,2)	(-9,2)	(-2,2)	(5,2)	(-48,1)	(-45,1)	(-56,1)	(8,1)	(-1,1)	(-14,1)	(-8,1)	(1,0)	
L2C 47>	(1,5)	(-8,1)	(-29,1)	(8,1)	(12,1)	(-34,1)	(-30,1)	(-20,1)	(-1,1)	(-13,1)	(-6,1)	(-37,1)	(-10,1)	(16,1)	(-5,1)	(1,0)	
L2C 48>	(1,4)	(-47,1)	(-35,1)	(-12,1)	(-42,1)	(-4,1)	(-36,1)	(-10,1)	(-17,1)	(-1,1)	(-13,1)	(-46,1)	(2,2)	(-38,1)	(-43,1)	(-50,1)	
L2C 49>	(8,1)	(-13,2)	(1,2)	(-30,1)	(-2,1)	(-12,2)	(-37,1)	(-8,1)	(-20,1)	(-39,1)	(5,1)	(-21,1)	(-48,1)	(-23,2)	(-41,1)	(-4,1)	
L2C 50>	(-31,2)	(1,1)	(-19,1)	(-26,1)	(5,1)	(-2,1)	(-15,2)	(-49,1)	(-59,1)	(-43,1)	(-13,1)	(-45,1)	(-22,1)	(-1,1)	(-17,1)	(1,0)	
L2C 51>	(-8,1)	(-31,1)	(5,2)	(-5,1)	(-56,1)	(-15,1)	(-28,1)	(-32,1)	(1,1)	(1,0)	(1,0)	(1,0)	(1,0)	(1,0)	(1,0)	(1,0)	
L2C 52>	(1,2)	(-24,1)	(-7,1)	(-8,1)	(-22,2)	(-33,1)	(-32,2)	(-48,1)	(-40,1)	(1,0)	(1,0)	(1,0)	(1,0)	(1,0)	(1,0)	(1,0)	
L2C 53>	(6,1)	(-42,2)	(-22,1)	(1,1)	(-24,1)	(-4,1)	(1,0)	(1,0)	(1,0)	(1,0)	(1,0)	(1,0)	(1,0)	(1,0)	(1,0)	(1,0)	
L2C 54>	(-2,2)	(1,2)	(-12,1)	(-43,2)	(-1,1)	(-13,1)	(-53,2)	(-11,2)	(-17,1)	(-49,1)	(-47,1)	(-55,1)	(-18,1)	(-24,1)	(1,0)	(1,0)	
L2C 55>	(-16,1)	(-46,2)	(1,3)	(-44,8)	(-32,1)	(-1,3)	(-56,1)	(1,0)	(1,0)	(1,0)	(1,0)	(1,0)	(1,0)	(1,0)	(1,0)	(1,0)	
L2C 56>	(5,1)	(-24,1)	(-33,1)	(-22,1)	(2,1)	(1,0)	(1,0)	(1,0)	(1,0)	(1,0)	(1,0)	(1,0)	(1,0)	(1,0)	(1,0)	(1,0)	
L2C 57>	(-21,1)	(-22,1)	(-2,1)	(-17,1)	(-33,1)	(1,0)	(1,0)	(1,0)	(1,0)	(1,0)	(1,0)	(1,0)	(1,0)	(1,0)	(1,0)	(1,0)	
L2C 58>	(-16,1)	(-33,1)	(-43,1)	(1,0)	(1,0)	(1,0)	(1,0)	(1,0)	(1,0)	(1,0)	(1,0)	(1,0)	(1,0)	(1,0)	(1,0)	(1,0)	
L2C 59>	(1,1)	(-4,1)	(-22,1)	(1,0)	(1,0)	(1,0)	(1,0)	(1,0)	(1,0)	(1,0)	(1,0)	(1,0)	(1,0)	(1,0)	(1,0)	(1,0)	
L2C 60>	(-12,1)	(1,0)	(1,0)	(1,0)	(1,0)	(1,0)	(1,0)	(1,0)	(1,0)	(1,0)	(1,0)	(1,0)	(1,0)	(1,0)	(1,0)	(1,0)	
L2C 61>	(1,1)	(1,0)	(1,0)	(1,0)	(1,0)	(1,0)	(1,0)	(1,0)	(1,0)	(1,0)	(1,0)	(1,0)	(1,0)	(1,0)	(1,0)	(1,0)	
L2C 62>	(-7,1)	(1,0)	(1,0)	(1,0)	(1,0)	(1,0)	(1,0)	(1,0)	(1,0)	(1,0)	(1,0)	(1,0)	(1,0)	(1,0)	(1,0)	(1,0)	
L2C 63>	(1,0)	(1,0)	(1,0)	(1,0)	(1,0)	(1,0)	(1,0)	(1,0)	(1,0)	(1,0)	(1,0)	(1,0)	(1,0)	(1,0)	(1,0)	(1,0)	

DRAM Statistics
 CHANNEL 0
 RQ ROW_BUFFER_HIT:     111588  ROW_BUFFER_MISS:     151235
 DBUS_CONGESTED:     210654
 WQ ROW_BUFFER_HIT:      18132  ROW_BUFFER_MISS:      94951  FULL:          0

 AVG_CONGESTED_CYCLE: 6
