
*** ChampSim Multicore Out-of-Order Simulator ***

Warmup Instructions: 1000000
Simulation Instructions: 10000000
Number of CPUs: 4
LLC sets: 8192
LLC ways: 16
Off-chip DRAM Size: 4096 MB Channels: 1 Width: 64-bit Data Rate: 3200 MT/s

CPU 0 runs /home/virtualcse/Data-Prefetching/ChampSim/dpc3_traces/600.perlbench_s-1273B.champsimtrace.xz
CPU 1 runs /home/virtualcse/Data-Prefetching/ChampSim/dpc3_traces/631.deepsjeng_s-928B.champsimtrace.xz
CPU 2 runs /home/virtualcse/Data-Prefetching/ChampSim/dpc3_traces/620.omnetpp_s-141B.champsimtrace.xz
CPU 3 runs /home/virtualcse/Data-Prefetching/ChampSim/dpc3_traces/625.x264_s-18B.champsimtrace.xz
Ultra pref. initializing...
Ultra pref. initialized
Ultra pref. initializing...
Ultra pref. initialized
Ultra pref. initializing...
Ultra pref. initialized
Ultra pref. initializing...
Ultra pref. initialized
Ultra pref. initializing...
Ultra pref. initialized
Ultra pref. initializing...
Ultra pref. initialized
Ultra pref. initializing...
Ultra pref. initialized
Ultra pref. initializing...
Ultra pref. initialized

Warmup complete CPU 0 instructions: 1397638 cycles: 540085 (Simulation time: 0 hr 0 min 12 sec) 
Warmup complete CPU 1 instructions: 1372207 cycles: 540085 (Simulation time: 0 hr 0 min 12 sec) 
Warmup complete CPU 2 instructions: 1000001 cycles: 540085 (Simulation time: 0 hr 0 min 12 sec) 
Warmup complete CPU 3 instructions: 1593362 cycles: 540084 (Simulation time: 0 hr 0 min 12 sec) 

Heartbeat CPU 3 instructions: 10000000 cycles: 4422128 heartbeat IPC: 2.26135 cumulative IPC: 2.16552 (Simulation time: 0 hr 0 min 45 sec) 
Finished CPU 3 instructions: 10000003 cycles: 4617848 cumulative IPC: 2.16551 (Simulation time: 0 hr 0 min 52 sec) 
Heartbeat CPU 0 instructions: 10000000 cycles: 5657317 heartbeat IPC: 1.76762 cumulative IPC: 1.68106 (Simulation time: 0 hr 0 min 56 sec) 
Finished CPU 0 instructions: 10000002 cycles: 5939947 cumulative IPC: 1.68352 (Simulation time: 0 hr 1 min 4 sec) 
Heartbeat CPU 1 instructions: 10000003 cycles: 8067267 heartbeat IPC: 1.23958 cumulative IPC: 1.14622 (Simulation time: 0 hr 1 min 17 sec) 
Heartbeat CPU 3 instructions: 20000001 cycles: 9070086 heartbeat IPC: 2.15148 cumulative IPC: 2.15787 (Simulation time: 0 hr 1 min 26 sec) 
Finished CPU 1 instructions: 10000002 cycles: 8753529 cumulative IPC: 1.1424 (Simulation time: 0 hr 1 min 28 sec) 
Heartbeat CPU 0 instructions: 20000000 cycles: 11927470 heartbeat IPC: 1.59486 cumulative IPC: 1.63359 (Simulation time: 0 hr 1 min 50 sec) 
Heartbeat CPU 3 instructions: 30000003 cycles: 13649889 heartbeat IPC: 2.1835 cumulative IPC: 2.16682 (Simulation time: 0 hr 2 min 6 sec) 
Heartbeat CPU 0 instructions: 30000002 cycles: 16939637 heartbeat IPC: 1.99515 cumulative IPC: 1.74409 (Simulation time: 0 hr 2 min 36 sec) 
Heartbeat CPU 1 instructions: 20000003 cycles: 17165079 heartbeat IPC: 1.09917 cumulative IPC: 1.12047 (Simulation time: 0 hr 2 min 38 sec) 
Heartbeat CPU 3 instructions: 40000001 cycles: 18209211 heartbeat IPC: 2.19331 cumulative IPC: 2.17366 (Simulation time: 0 hr 2 min 48 sec) 
Heartbeat CPU 2 instructions: 10000000 cycles: 22271462 heartbeat IPC: 0.449005 cumulative IPC: 0.414148 (Simulation time: 0 hr 3 min 22 sec) 
Heartbeat CPU 3 instructions: 50000002 cycles: 22761898 heartbeat IPC: 2.19651 cumulative IPC: 2.17834 (Simulation time: 0 hr 3 min 27 sec) 
Heartbeat CPU 0 instructions: 40000002 cycles: 22981577 heartbeat IPC: 1.6551 cumulative IPC: 1.72013 (Simulation time: 0 hr 3 min 28 sec) 
Finished CPU 2 instructions: 10000000 cycles: 24184958 cumulative IPC: 0.41348 (Simulation time: 0 hr 3 min 43 sec) 

CPU 0 Branch Prediction Accuracy: 98.5336% MPKI: 1.8221 Average ROB Occupancy at Mispredict: 92.6945

CPU 1 Branch Prediction Accuracy: 91.7909% MPKI: 8.9828 Average ROB Occupancy at Mispredict: 47.0811

CPU 2 Branch Prediction Accuracy: 96.1891% MPKI: 5.6957 Average ROB Occupancy at Mispredict: 85.1901

CPU 3 Branch Prediction Accuracy: 97.6813% MPKI: 0.832763 Average ROB Occupancy at Mispredict: 237.958

ChampSim completed all CPUs

Total Simulation Statistics (not including warmup)

CPU 0 cumulative IPC: 1.71615 instructions: 41505057 cycles: 24184958
L1D TOTAL     ACCESS:   20897350  HIT:   20893098  MISS:       4252
L1D LOAD      ACCESS:    6099633  HIT:    6097786  MISS:       1847
L1D RFO       ACCESS:    8997341  HIT:    8997264  MISS:         77
L1D PREFETCH  ACCESS:    5800376  HIT:    5798048  MISS:       2328
L1D WRITEBACK ACCESS:          0  HIT:          0  MISS:          0
L1I TOTAL     ACCESS:    4864254  HIT:    4862984  MISS:       1270
L1I LOAD      ACCESS:    4864254  HIT:    4862984  MISS:       1270
L1I RFO       ACCESS:          0  HIT:          0  MISS:          0
L1I PREFETCH  ACCESS:          0  HIT:          0  MISS:          0
L1I WRITEBACK ACCESS:          0  HIT:          0  MISS:          0
L2C TOTAL     ACCESS:      15917  HIT:      10264  MISS:       5653
L2C LOAD      ACCESS:       3090  HIT:       1826  MISS:       1264
L2C RFO       ACCESS:         77  HIT:         16  MISS:         61
L2C PREFETCH  ACCESS:      12481  HIT:       8155  MISS:       4326
L2C WRITEBACK ACCESS:        269  HIT:        267  MISS:          2

L1D -512>	(0,111)	(10,3)	(-9,3)	(68,4)	(2,4)	(4,39)	(3,23)	(1,45)	(13,1)	(-2,2)	(6,2)	(-20,1)	(-1,16)	(70,1)	(5,17)	(8,1)	
L1D -511>	(1,0)	(1,0)	(1,0)	(1,0)	(1,0)	(1,0)	(1,0)	(1,0)	(1,0)	(1,0)	(1,0)	(1,0)	(1,0)	(1,0)	(1,0)	(1,0)	
L1D -510>	(1,0)	(1,0)	(1,0)	(1,0)	(1,0)	(1,0)	(1,0)	(1,0)	(1,0)	(1,0)	(1,0)	(1,0)	(1,0)	(1,0)	(1,0)	(1,0)	
L1D -509>	(1,0)	(1,0)	(1,0)	(1,0)	(1,0)	(1,0)	(1,0)	(1,0)	(1,0)	(1,0)	(1,0)	(1,0)	(1,0)	(1,0)	(1,0)	(1,0)	
L1D -508>	(1,0)	(1,0)	(1,0)	(1,0)	(1,0)	(1,0)	(1,0)	(1,0)	(1,0)	(1,0)	(1,0)	(1,0)	(1,0)	(1,0)	(1,0)	(1,0)	
L1D -507>	(1,0)	(1,0)	(1,0)	(1,0)	(1,0)	(1,0)	(1,0)	(1,0)	(1,0)	(1,0)	(1,0)	(1,0)	(1,0)	(1,0)	(1,0)	(1,0)	
L1D -506>	(122,1)	(1,0)	(1,0)	(1,0)	(1,0)	(1,0)	(1,0)	(1,0)	(1,0)	(1,0)	(1,0)	(1,0)	(1,0)	(1,0)	(1,0)	(1,0)	
L1D -505>	(1,0)	(1,0)	(1,0)	(1,0)	(1,0)	(1,0)	(1,0)	(1,0)	(1,0)	(1,0)	(1,0)	(1,0)	(1,0)	(1,0)	(1,0)	(1,0)	
L1D -504>	(0,1)	(1,0)	(1,0)	(1,0)	(1,0)	(1,0)	(1,0)	(1,0)	(1,0)	(1,0)	(1,0)	(1,0)	(1,0)	(1,0)	(1,0)	(1,0)	
L1D -503>	(0,1)	(1,0)	(1,0)	(1,0)	(1,0)	(1,0)	(1,0)	(1,0)	(1,0)	(1,0)	(1,0)	(1,0)	(1,0)	(1,0)	(1,0)	(1,0)	
L1D -502>	(99,1)	(96,1)	(112,1)	(1,0)	(1,0)	(1,0)	(1,0)	(1,0)	(1,0)	(1,0)	(1,0)	(1,0)	(1,0)	(1,0)	(1,0)	(1,0)	
L1D -501>	(-6,1)	(342,1)	(4,1)	(1,0)	(1,0)	(1,0)	(1,0)	(1,0)	(1,0)	(1,0)	(1,0)	(1,0)	(1,0)	(1,0)	(1,0)	(1,0)	
L1D -500>	(0,2)	(4,1)	(1,0)	(1,0)	(1,0)	(1,0)	(1,0)	(1,0)	(1,0)	(1,0)	(1,0)	(1,0)	(1,0)	(1,0)	(1,0)	(1,0)	
L1D -499>	(1,1)	(29,1)	(1,0)	(1,0)	(1,0)	(1,0)	(1,0)	(1,0)	(1,0)	(1,0)	(1,0)	(1,0)	(1,0)	(1,0)	(1,0)	(1,0)	
L1D -498>	(146,1)	(88,1)	(85,4)	(1,0)	(1,0)	(1,0)	(1,0)	(1,0)	(1,0)	(1,0)	(1,0)	(1,0)	(1,0)	(1,0)	(1,0)	(1,0)	
L1D -497>	(1,0)	(1,0)	(1,0)	(1,0)	(1,0)	(1,0)	(1,0)	(1,0)	(1,0)	(1,0)	(1,0)	(1,0)	(1,0)	(1,0)	(1,0)	(1,0)	
L1D -496>	(1,1)	(135,1)	(1,0)	(1,0)	(1,0)	(1,0)	(1,0)	(1,0)	(1,0)	(1,0)	(1,0)	(1,0)	(1,0)	(1,0)	(1,0)	(1,0)	
L1D -495>	(0,1)	(146,1)	(1,0)	(1,0)	(1,0)	(1,0)	(1,0)	(1,0)	(1,0)	(1,0)	(1,0)	(1,0)	(1,0)	(1,0)	(1,0)	(1,0)	
L1D -494>	(0,1)	(112,2)	(146,1)	(1,0)	(1,0)	(1,0)	(1,0)	(1,0)	(1,0)	(1,0)	(1,0)	(1,0)	(1,0)	(1,0)	(1,0)	(1,0)	
L1D -493>	(1,1)	(0,1)	(1,0)	(1,0)	(1,0)	(1,0)	(1,0)	(1,0)	(1,0)	(1,0)	(1,0)	(1,0)	(1,0)	(1,0)	(1,0)	(1,0)	
L1D -492>	(0,2)	(1,0)	(1,0)	(1,0)	(1,0)	(1,0)	(1,0)	(1,0)	(1,0)	(1,0)	(1,0)	(1,0)	(1,0)	(1,0)	(1,0)	(1,0)	
L1D -491>	(-1,2)	(0,1)	(475,1)	(1,0)	(1,0)	(1,0)	(1,0)	(1,0)	(1,0)	(1,0)	(1,0)	(1,0)	(1,0)	(1,0)	(1,0)	(1,0)	
L1D -490>	(98,1)	(47,1)	(-1,1)	(1,0)	(1,0)	(1,0)	(1,0)	(1,0)	(1,0)	(1,0)	(1,0)	(1,0)	(1,0)	(1,0)	(1,0)	(1,0)	
L1D -489>	(-3,1)	(1,0)	(1,0)	(1,0)	(1,0)	(1,0)	(1,0)	(1,0)	(1,0)	(1,0)	(1,0)	(1,0)	(1,0)	(1,0)	(1,0)	(1,0)	
L1D -488>	(-3,1)	(0,1)	(115,1)	(99,1)	(1,0)	(1,0)	(1,0)	(1,0)	(1,0)	(1,0)	(1,0)	(1,0)	(1,0)	(1,0)	(1,0)	(1,0)	
L1D -487>	(304,1)	(0,1)	(1,0)	(1,0)	(1,0)	(1,0)	(1,0)	(1,0)	(1,0)	(1,0)	(1,0)	(1,0)	(1,0)	(1,0)	(1,0)	(1,0)	
L1D -486>	(99,1)	(55,1)	(1,1)	(18,1)	(0,1)	(80,1)	(79,1)	(486,2)	(1,0)	(1,0)	(1,0)	(1,0)	(1,0)	(1,0)	(1,0)	(1,0)	
L1D -485>	(346,1)	(119,1)	(0,2)	(88,1)	(95,2)	(83,1)	(475,1)	(1,0)	(1,0)	(1,0)	(1,0)	(1,0)	(1,0)	(1,0)	(1,0)	(1,0)	
L1D -484>	(0,1)	(82,1)	(70,1)	(85,3)	(10,1)	(47,1)	(1,1)	(1,0)	(1,0)	(1,0)	(1,0)	(1,0)	(1,0)	(1,0)	(1,0)	(1,0)	
L1D -483>	(354,1)	(322,1)	(78,3)	(87,1)	(1,0)	(1,0)	(1,0)	(1,0)	(1,0)	(1,0)	(1,0)	(1,0)	(1,0)	(1,0)	(1,0)	(1,0)	
L1D -482>	(98,1)	(38,2)	(-25,1)	(311,2)	(-6,1)	(4,1)	(1,0)	(1,0)	(1,0)	(1,0)	(1,0)	(1,0)	(1,0)	(1,0)	(1,0)	(1,0)	
L1D -481>	(0,2)	(123,1)	(449,2)	(1,0)	(1,0)	(1,0)	(1,0)	(1,0)	(1,0)	(1,0)	(1,0)	(1,0)	(1,0)	(1,0)	(1,0)	(1,0)	
L1D -480>	(0,1)	(99,2)	(456,15)	(464,4)	(480,3)	(448,6)	(3,1)	(34,1)	(123,1)	(1,0)	(1,0)	(1,0)	(1,0)	(1,0)	(1,0)	(1,0)	
L1D -479>	(270,2)	(146,1)	(477,1)	(0,1)	(122,3)	(1,0)	(1,0)	(1,0)	(1,0)	(1,0)	(1,0)	(1,0)	(1,0)	(1,0)	(1,0)	(1,0)	
L1D -478>	(34,1)	(121,1)	(498,1)	(95,1)	(400,2)	(276,1)	(282,1)	(85,1)	(292,1)	(1,0)	(1,0)	(1,0)	(1,0)	(1,0)	(1,0)	(1,0)	
L1D -477>	(264,1)	(285,1)	(95,2)	(1,0)	(1,0)	(1,0)	(1,0)	(1,0)	(1,0)	(1,0)	(1,0)	(1,0)	(1,0)	(1,0)	(1,0)	(1,0)	
L1D -476>	(91,1)	(3,1)	(-2,1)	(0,1)	(1,0)	(1,0)	(1,0)	(1,0)	(1,0)	(1,0)	(1,0)	(1,0)	(1,0)	(1,0)	(1,0)	(1,0)	
L1D -475>	(0,3)	(475,3)	(411,1)	(1,0)	(1,0)	(1,0)	(1,0)	(1,0)	(1,0)	(1,0)	(1,0)	(1,0)	(1,0)	(1,0)	(1,0)	(1,0)	
L1D -474>	(115,3)	(2,1)	(4,1)	(474,1)	(0,1)	(1,0)	(1,0)	(1,0)	(1,0)	(1,0)	(1,0)	(1,0)	(1,0)	(1,0)	(1,0)	(1,0)	
L1D -473>	(2,1)	(-1,1)	(0,2)	(52,1)	(1,0)	(1,0)	(1,0)	(1,0)	(1,0)	(1,0)	(1,0)	(1,0)	(1,0)	(1,0)	(1,0)	(1,0)	
L1D -472>	(113,2)	(0,1)	(98,3)	(-8,1)	(63,1)	(121,1)	(4,1)	(115,1)	(1,0)	(1,0)	(1,0)	(1,0)	(1,0)	(1,0)	(1,0)	(1,0)	
L1D -471>	(1,4)	(343,3)	(97,3)	(0,1)	(472,1)	(262,1)	(-9,1)	(1,0)	(1,0)	(1,0)	(1,0)	(1,0)	(1,0)	(1,0)	(1,0)	(1,0)	
L1D -470>	(45,1)	(0,3)	(124,1)	(281,1)	(96,9)	(34,1)	(278,1)	(275,2)	(121,1)	(359,1)	(264,1)	(370,1)	(113,4)	(1,1)	(1,0)	(1,0)	
L1D -469>	(27,1)	(26,1)	(278,1)	(350,1)	(112,1)	(0,1)	(23,1)	(1,0)	(1,0)	(1,0)	(1,0)	(1,0)	(1,0)	(1,0)	(1,0)	(1,0)	
L1D -468>	(20,1)	(0,1)	(69,1)	(479,1)	(88,1)	(103,1)	(1,0)	(1,0)	(1,0)	(1,0)	(1,0)	(1,0)	(1,0)	(1,0)	(1,0)	(1,0)	
L1D -467>	(1,5)	(0,1)	(122,1)	(1,0)	(1,0)	(1,0)	(1,0)	(1,0)	(1,0)	(1,0)	(1,0)	(1,0)	(1,0)	(1,0)	(1,0)	(1,0)	
L1D -466>	(490,1)	(330,31)	(254,4)	(4,1)	(1,0)	(1,0)	(1,0)	(1,0)	(1,0)	(1,0)	(1,0)	(1,0)	(1,0)	(1,0)	(1,0)	(1,0)	
L1D -465>	(122,1)	(0,2)	(114,1)	(120,1)	(311,1)	(386,1)	(1,1)	(1,0)	(1,0)	(1,0)	(1,0)	(1,0)	(1,0)	(1,0)	(1,0)	(1,0)	
L1D -464>	(0,6)	(113,3)	(-1,1)	(2,1)	(28,1)	(464,3)	(4,1)	(448,4)	(1,1)	(268,1)	(1,0)	(1,0)	(1,0)	(1,0)	(1,0)	(1,0)	
L1D -463>	(1,1)	(17,1)	(122,1)	(1,0)	(1,0)	(1,0)	(1,0)	(1,0)	(1,0)	(1,0)	(1,0)	(1,0)	(1,0)	(1,0)	(1,0)	(1,0)	
L1D -462>	(69,1)	(277,1)	(218,1)	(89,1)	(104,1)	(1,1)	(120,1)	(266,1)	(122,1)	(1,0)	(1,0)	(1,0)	(1,0)	(1,0)	(1,0)	(1,0)	
L1D -461>	(17,1)	(1,2)	(430,1)	(108,1)	(1,0)	(1,0)	(1,0)	(1,0)	(1,0)	(1,0)	(1,0)	(1,0)	(1,0)	(1,0)	(1,0)	(1,0)	
L1D -460>	(78,1)	(1,1)	(-5,1)	(144,1)	(260,1)	(67,2)	(460,2)	(0,1)	(34,1)	(69,1)	(389,1)	(120,1)	(18,1)	(57,1)	(382,1)	(1,0)	
L1D -459>	(0,2)	(249,1)	(459,3)	(66,1)	(4,1)	(146,1)	(263,1)	(300,1)	(1,1)	(1,0)	(1,0)	(1,0)	(1,0)	(1,0)	(1,0)	(1,0)	
L1D -458>	(2,2)	(1,1)	(456,2)	(91,1)	(458,15)	(246,1)	(450,1)	(331,1)	(-3,4)	(0,4)	(48,1)	(-6,1)	(1,0)	(1,0)	(1,0)	(1,0)	
L1D -457>	(2,2)	(122,3)	(106,1)	(329,9)	(350,4)	(332,3)	(322,1)	(1,1)	(5,1)	(312,2)	(305,1)	(328,1)	(0,1)	(1,0)	(1,0)	(1,0)	
L1D -456>	(8,2)	(113,1)	(0,2)	(1,3)	(16,1)	(260,2)	(448,30)	(-8,2)	(66,1)	(464,1)	(82,1)	(89,1)	(376,1)	(1,0)	(1,0)	(1,0)	
L1D -455>	(104,4)	(274,1)	(68,12)	(54,1)	(321,1)	(-8,2)	(1,0)	(1,0)	(1,0)	(1,0)	(1,0)	(1,0)	(1,0)	(1,0)	(1,0)	(1,0)	
L1D -454>	(0,30)	(1,25)	(251,1)	(247,12)	(267,1)	(295,1)	(79,1)	(50,2)	(80,5)	(25,1)	(327,3)	(57,2)	(87,1)	(279,10)	(1,0)	(1,0)	
L1D -453>	(0,4)	(17,1)	(453,13)	(287,1)	(279,1)	(-8,1)	(113,2)	(1,0)	(1,0)	(1,0)	(1,0)	(1,0)	(1,0)	(1,0)	(1,0)	(1,0)	
L1D -452>	(0,2)	(1,3)	(270,1)	(83,1)	(426,1)	(-1,1)	(124,1)	(1,0)	(1,0)	(1,0)	(1,0)	(1,0)	(1,0)	(1,0)	(1,0)	(1,0)	
L1D -451>	(2,5)	(-12,1)	(122,2)	(70,1)	(263,1)	(1,1)	(0,1)	(323,1)	(-8,2)	(88,1)	(1,0)	(1,0)	(1,0)	(1,0)	(1,0)	(1,0)	
L1D -450>	(115,10)	(97,1)	(0,6)	(1,2)	(304,1)	(366,1)	(400,1)	(384,1)	(314,7)	(38,1)	(270,1)	(392,1)	(1,0)	(1,0)	(1,0)	(1,0)	
L1D -449>	(114,4)	(312,2)	(68,108)	(0,79)	(120,2)	(122,2)	(88,43)	(1,7)	(176,3)	(-1,4)	(2,29)	(352,1)	(236,1)	(386,1)	(449,2)	(5,1)	
L1D -448>	(113,9)	(122,6)	(424,2)	(456,5)	(68,6)	(287,4)	(121,7)	(384,22)	(416,17)	(112,17)	(432,8)	(448,98)	(480,40)	(320,2)	(464,3)	(106,2)	
L1D -447>	(319,9)	(447,14)	(-2,3)	(8,2)	(120,1)	(0,27)	(121,2)	(119,1)	(384,4)	(7,2)	(112,1)	(88,2)	(14,2)	(444,1)	(311,2)	(71,1)	
L1D -446>	(1,7)	(446,1)	(319,2)	(77,3)	(0,8)	(318,1)	(459,1)	(449,1)	(278,1)	(447,1)	(4,1)	(120,3)	(285,1)	(108,1)	(122,1)	(448,1)	
L1D -445>	(0,7)	(68,1)	(319,1)	(445,1)	(88,3)	(1,2)	(458,1)	(5,1)	(444,1)	(23,1)	(2,1)	(-10,1)	(1,0)	(1,0)	(1,0)	(1,0)	
L1D -444>	(0,7)	(1,17)	(88,4)	(144,2)	(17,1)	(67,4)	(260,6)	(252,1)	(71,1)	(-8,1)	(69,2)	(444,1)	(72,1)	(111,1)	(113,1)	(272,1)	
L1D -443>	(0,18)	(1,29)	(3,1)	(-26,3)	(396,1)	(88,5)	(66,1)	(443,5)	(279,1)	(278,1)	(277,1)	(269,1)	(1,0)	(1,0)	(1,0)	(1,0)	
L1D -442>	(1,65)	(0,7)	(88,4)	(-8,0)	(443,0)	(287,0)	(-18,0)	(2,0)	(269,0)	(1,0)	(1,0)	(1,0)	(1,0)	(1,0)	(1,0)	(1,0)	
L1D -441>	(1,122)	(0,118)	(88,52)	(87,1)	(176,0)	(352,0)	(440,0)	(-1,2)	(1,0)	(1,0)	(1,0)	(1,0)	(1,0)	(1,0)	(1,0)	(1,0)	
L1D -440>	(0,105)	(88,47)	(113,0)	(-1,0)	(1,2)	(309,0)	(349,0)	(315,0)	(330,0)	(358,0)	(308,0)	(310,0)	(367,0)	(317,0)	(306,0)	(338,0)	
L1D -439>	(0,76)	(1,6)	(86,2)	(87,4)	(88,92)	(278,3)	(-9,1)	(35,1)	(-1,6)	(457,1)	(-8,3)	(243,2)	(259,3)	(267,1)	(308,0)	(310,0)	
L1D -438>	(459,12)	(438,39)	(212,3)	(276,2)	(311,7)	(0,3)	(295,3)	(-8,1)	(330,1)	(336,1)	(358,1)	(367,1)	(306,1)	(340,1)	(338,1)	(328,1)	
L1D -437>	(1,2)	(29,2)	(438,73)	(212,1)	(0,1)	(311,12)	(458,3)	(434,6)	(295,1)	(394,0)	(88,1)	(-1,0)	(-2,1)	(437,1)	(274,0)	(1,0)	
L1D -436>	(0,4)	(1,4)	(438,111)	(434,13)	(295,11)	(88,1)	(-8,2)	(63,3)	(212,1)	(107,1)	(69,1)	(1,0)	(1,0)	(1,0)	(1,0)	(1,0)	
L1D -435>	(118,3)	(435,110)	(294,10)	(434,4)	(438,8)	(431,7)	(210,14)	(261,5)	(93,9)	(121,1)	(92,5)	(104,38)	(105,8)	(250,18)	(263,3)	(97,7)	
L1D -434>	(1,7)	(0,20)	(212,9)	(435,38)	(438,114)	(434,28)	(295,10)	(121,1)	(113,1)	(93,1)	(398,0)	(5,1)	(-16,0)	(-11,0)	(101,0)	(69,0)	
L1D -433>	(438,1)	(0,11)	(1,2)	(-8,1)	(-3,47)	(435,66)	(294,8)	(210,1)	(431,2)	(250,0)	(3,1)	(228,0)	(2,0)	(1,0)	(1,0)	(1,0)	
L1D -432>	(0,7)	(3,2)	(431,1)	(88,2)	(238,3)	(1,2)	(432,3)	(91,1)	(97,1)	(61,1)	(52,1)	(-20,1)	(2,2)	(435,9)	(106,1)	(26,1)	
L1D -431>	(0,6)	(104,0)	(2,0)	(1,89)	(431,77)	(294,7)	(210,24)	(435,87)	(23,0)	(92,0)	(88,1)	(17,0)	(4,0)	(8,0)	(7,0)	(47,0)	
L1D -430>	(1,71)	(269,1)	(250,1)	(206,0)	(97,0)	(431,0)	(418,0)	(261,0)	(88,0)	(26,0)	(121,0)	(16,0)	(69,0)	(57,0)	(-2,0)	(286,0)	
L1D -429>	(1,89)	(0,0)	(431,0)	(316,0)	(8,0)	(29,0)	(-8,0)	(79,0)	(93,0)	(1,0)	(1,0)	(1,0)	(1,0)	(1,0)	(1,0)	(1,0)	
L1D -428>	(0,14)	(1,31)	(412,1)	(408,1)	(4,1)	(88,1)	(61,3)	(8,3)	(360,1)	(471,81)	(250,1)	(89,1)	(16,2)	(1,0)	(1,0)	(1,0)	
L1D -427>	(1,93)	(386,1)	(28,11)	(104,1)	(203,0)	(2,0)	(56,0)	(427,11)	(290,0)	(423,0)	(-9,0)	(-5,0)	(382,0)	(5,0)	(1,0)	(1,0)	
L1D -426>	(1,31)	(27,33)	(4,5)	(0,13)	(427,125)	(423,4)	(-3,19)	(16,2)	(40,2)	(8,13)	(426,1)	(203,2)	(104,1)	(290,1)	(57,1)	(17,0)	
L1D -425>	(1,1)	(0,0)	(427,65)	(423,3)	(8,0)	(203,6)	(290,6)	(353,0)	(2,0)	(1,0)	(1,0)	(1,0)	(1,0)	(1,0)	(1,0)	(1,0)	
L1D -424>	(0,8)	(406,1)	(290,1)	(427,8)	(8,2)	(423,8)	(53,1)	(297,3)	(353,2)	(428,1)	(254,1)	(412,1)	(1,2)	(20,1)	(246,1)	(203,2)	
L1D -423>	(0,8)	(1,80)	(2,3)	(427,27)	(423,98)	(203,4)	(290,15)	(8,1)	(5,1)	(-2,1)	(-4,1)	(-10,1)	(390,0)	(94,0)	(382,0)	(1,0)	
L1D -422>	(1,74)	(0,1)	(2,9)	(122,0)	(34,0)	(410,0)	(418,0)	(247,0)	(1,0)	(1,0)	(1,0)	(1,0)	(1,0)	(1,0)	(1,0)	(1,0)	
L1D -421>	(0,3)	(1,107)	(368,1)	(421,0)	(-6,0)	(316,0)	(2,0)	(16,0)	(1,0)	(1,0)	(1,0)	(1,0)	(1,0)	(1,0)	(1,0)	(1,0)	
L1D -420>	(1,29)	(0,44)	(421,4)	(402,2)	(394,1)	(420,3)	(388,1)	(53,1)	(-3,29)	(-4,1)	(79,1)	(3,2)	(383,1)	(8,1)	(248,1)	(1,0)	
L1D -419>	(1,82)	(0,2)	(196,0)	(-1,0)	(419,9)	(286,1)	(8,1)	(420,0)	(1,0)	(1,0)	(1,0)	(1,0)	(1,0)	(1,0)	(1,0)	(1,0)	
L1D -418>	(196,0)	(0,3)	(392,0)	(3,1)	(-3,1)	(419,64)	(418,3)	(286,0)	(160,0)	(1,2)	(278,0)	(415,1)	(8,0)	(-5,0)	(1,0)	(1,0)	
L1D -417>	(-10,90)	(419,1)	(0,0)	(417,0)	(122,0)	(2,0)	(31,0)	(118,0)	(1,0)	(1,0)	(1,0)	(1,0)	(1,0)	(1,0)	(1,0)	(1,0)	
L1D -416>	(0,6)	(202,2)	(400,4)	(260,6)	(209,9)	(416,24)	(392,2)	(204,3)	(252,4)	(-64,1)	(128,2)	(5,4)	(1,8)	(415,8)	(53,1)	(384,3)	
L1D -415>	(0,14)	(1,69)	(95,2)	(415,51)	(419,20)	(286,22)	(122,1)	(77,1)	(7,1)	(62,1)	(107,3)	(2,2)	(414,1)	(196,0)	(113,4)	(-2,0)	
L1D -414>	(1,88)	(0,2)	(-28,1)	(5,1)	(53,1)	(402,2)	(249,1)	(2,0)	(416,0)	(-3,2)	(414,0)	(1,0)	(1,0)	(1,0)	(1,0)	(1,0)	
L1D -413>	(1,103)	(0,3)	(2,2)	(11,2)	(413,2)	(5,1)	(120,1)	(1,0)	(1,0)	(1,0)	(1,0)	(1,0)	(1,0)	(1,0)	(1,0)	(1,0)	
L1D -412>	(1,29)	(0,82)	(8,18)	(-3,90)	(-8,1)	(412,10)	(-1,1)	(413,2)	(270,5)	(146,1)	(222,1)	(394,4)	(3,7)	(322,1)	(5,1)	(2,1)	
L1D -411>	(0,67)	(-7,5)	(160,1)	(32,0)	(411,0)	(-3,0)	(282,0)	(1,0)	(1,0)	(1,0)	(1,0)	(1,0)	(1,0)	(1,0)	(1,0)	(1,0)	
L1D -410>	(0,8)	(2,1)	(410,3)	(282,2)	(411,92)	(1,3)	(-10,1)	(72,1)	(79,1)	(189,1)	(246,1)	(64,1)	(-1,1)	(3,0)	(-3,1)	(409,0)	
L1D -409>	(-3,12)	(344,2)	(8,1)	(-8,1)	(246,1)	(0,5)	(411,125)	(-64,13)	(2,1)	(282,8)	(409,1)	(368,1)	(377,1)	(1,3)	(407,7)	(189,1)	
L1D -408>	(407,6)	(390,2)	(206,5)	(88,2)	(0,26)	(-3,8)	(1,9)	(-64,7)	(404,1)	(-2,1)	(409,4)	(113,4)	(411,7)	(440,1)	(104,3)	(384,1)	
L1D -407>	(0,22)	(1,79)	(27,8)	(8,2)	(411,49)	(407,81)	(282,22)	(94,12)	(2,3)	(105,3)	(349,2)	(155,6)	(285,3)	(28,1)	(499,1)	(490,1)	
L1D -406>	(449,1)	(1,66)	(205,1)	(113,1)	(394,2)	(-64,1)	(104,0)	(406,2)	(0,2)	(10,0)	(-8,0)	(70,0)	(336,0)	(268,0)	(410,1)	(26,1)	
L1D -405>	(1,113)	(5,1)	(255,1)	(401,2)	(-64,1)	(197,2)	(191,3)	(313,2)	(0,1)	(316,0)	(325,0)	(334,0)	(297,0)	(296,0)	(273,0)	(305,0)	
L1D -404>	(4,1)	(0,12)	(405,3)	(-64,1)	(1,24)	(16,2)	(8,1)	(392,4)	(9,2)	(313,1)	(382,1)	(399,1)	(-10,2)	(404,17)	(3,1)	(12,1)	
L1D -403>	(93,32)	(91,7)	(97,17)	(105,15)	(1,64)	(92,18)	(265,7)	(403,5)	(104,37)	(121,26)	(113,36)	(90,10)	(250,50)	(-64,12)	(117,8)	(101,1)	
L1D -402>	(101,4)	(93,18)	(113,16)	(104,23)	(403,88)	(92,12)	(264,10)	(0,4)	(-64,1)	(105,10)	(250,19)	(97,18)	(-42,3)	(114,9)	(121,16)	(95,9)	
L1D -401>	(1,6)	(113,2)	(-64,4)	(182,6)	(56,1)	(398,1)	(278,12)	(399,7)	(-26,1)	(0,3)	(2,5)	(97,1)	(250,3)	(403,111)	(11,1)	(401,4)	
L1D -400>	(0,12)	(-64,6)	(403,4)	(400,8)	(401,4)	(1,3)	(464,1)	(121,2)	(-1,3)	(112,4)	(122,67)	(384,2)	(105,1)	(363,3)	(399,8)	(278,5)	
L1D -399>	(0,10)	(1,49)	(5,2)	(250,4)	(270,3)	(403,43)	(255,2)	(90,9)	(278,18)	(-27,15)	(272,3)	(399,76)	(92,3)	(86,12)	(197,1)	(265,5)	
L1D -398>	(93,9)	(97,16)	(113,6)	(101,10)	(0,19)	(104,49)	(250,66)	(264,10)	(121,54)	(102,9)	(313,1)	(1,113)	(86,6)	(-3,5)	(95,6)	(92,28)	
L1D -397>	(26,1)	(250,4)	(-64,2)	(272,1)	(1,84)	(113,1)	(-43,1)	(91,3)	(102,2)	(185,1)	(104,1)	(93,1)	(1,0)	(1,0)	(1,0)	(1,0)	
L1D -396>	(1,18)	(0,13)	(88,2)	(304,1)	(8,1)	(3,4)	(28,1)	(271,1)	(-9,1)	(5,2)	(-64,3)	(112,2)	(396,5)	(250,1)	(197,1)	(-14,1)	
L1D -395>	(-61,1)	(1,109)	(92,1)	(102,2)	(93,1)	(395,14)	(113,4)	(94,1)	(-64,20)	(101,1)	(104,6)	(117,2)	(103,3)	(0,7)	(250,8)	(-1,1)	
L1D -394>	(175,5)	(106,14)	(101,17)	(0,7)	(3,5)	(200,3)	(250,15)	(395,115)	(102,12)	(118,2)	(104,2)	(396,5)	(1,11)	(186,2)	(-1,1)	(408,1)	
L1D -393>	(-64,8)	(393,19)	(175,4)	(274,3)	(8,4)	(5,2)	(0,8)	(191,2)	(197,7)	(183,2)	(395,75)	(391,8)	(293,3)	(2,4)	(177,2)	(204,1)	
L1D -392>	(5,2)	(392,5)	(393,4)	(404,1)	(-8,3)	(67,1)	(238,1)	(0,2)	(395,4)	(440,10)	(121,1)	(391,4)	(2,4)	(-16,1)	(160,1)	(1,4)	
L1D -391>	(12,4)	(361,3)	(395,51)	(255,3)	(333,8)	(392,1)	(1,43)	(391,98)	(78,24)	(460,2)	(332,2)	(274,8)	(2,2)	(-64,11)	(11,19)	(87,4)	
L1D -390>	(-2,3)	(446,1)	(0,4)	(-10,2)	(183,1)	(215,8)	(324,1)	(390,5)	(389,1)	(364,1)	(1,75)	(-23,3)	(114,3)	(191,3)	(-64,4)	(107,1)	
L1D -389>	(-64,7)	(1,93)	(0,5)	(250,4)	(87,2)	(10,1)	(101,1)	(385,1)	(2,2)	(261,4)	(-69,1)	(197,1)	(98,1)	(390,1)	(78,1)	(460,1)	
L1D -388>	(388,3)	(-8,2)	(0,14)	(1,9)	(-16,21)	(174,2)	(-72,2)	(56,2)	(68,1)	(126,1)	(-1,1)	(8,1)	(-3,11)	(380,3)	(374,1)	(389,4)	
L1D -387>	(1,109)	(2,2)	(114,15)	(387,9)	(-8,2)	(386,1)	(0,3)	(414,1)	(104,1)	(-16,2)	(360,1)	(122,2)	(-2,2)	(56,1)	(352,2)	(1,0)	
L1D -386>	(416,0)	(386,92)	(0,9)	(-31,8)	(387,0)	(-64,3)	(114,0)	(1,0)	(1,0)	(1,0)	(1,0)	(1,0)	(1,0)	(1,0)	(1,0)	(1,0)	
L1D -385>	(0,21)	(-64,6)	(197,5)	(113,11)	(122,43)	(106,5)	(183,1)	(385,4)	(2,8)	(51,1)	(8,34)	(-2,2)	(-67,2)	(150,1)	(383,7)	(387,34)	
L1D -384>	(121,23)	(0,9)	(8,3)	(-64,5)	(448,2)	(384,111)	(400,13)	(387,4)	(392,6)	(372,2)	(332,3)	(111,2)	(416,34)	(112,5)	(385,1)	(-72,5)	
L1D -383>	(0,9)	(6,5)	(383,92)	(120,9)	(111,2)	(-64,7)	(-1,2)	(205,2)	(188,1)	(288,2)	(5,2)	(394,1)	(401,1)	(387,51)	(1,11)	(270,5)	
L1D -382>	(-94,1)	(388,1)	(0,6)	(377,1)	(387,1)	(189,1)	(382,1)	(-64,4)	(197,2)	(419,4)	(-95,1)	(1,65)	(204,1)	(332,2)	(-30,1)	(240,1)	
L1D -381>	(0,12)	(114,109)	(-64,3)	(152,7)	(-4,1)	(197,2)	(8,2)	(68,1)	(1,36)	(126,1)	(82,2)	(4,1)	(29,1)	(44,1)	(85,1)	(414,1)	
L1D -380>	(380,7)	(218,1)	(381,2)	(0,11)	(250,7)	(3,3)	(96,2)	(-64,7)	(1,7)	(-8,2)	(128,4)	(55,28)	(252,3)	(-16,2)	(296,2)	(-72,2)	
L1D -379>	(1,101)	(-64,3)	(8,1)	(0,11)	(267,2)	(-5,1)	(197,2)	(122,9)	(379,11)	(270,1)	(363,5)	(186,1)	(-21,1)	(2,1)	(-14,1)	(-16,1)	
L1D -378>	(-48,4)	(200,10)	(115,6)	(3,8)	(378,15)	(182,4)	(380,18)	(379,53)	(16,10)	(0,15)	(113,12)	(-64,3)	(-32,4)	(122,6)	(9,1)	(1,4)	
L1D -377>	(0,16)	(1,3)	(114,10)	(312,13)	(197,31)	(126,2)	(-64,38)	(377,52)	(313,3)	(379,7)	(344,3)	(5,12)	(8,16)	(375,5)	(110,4)	(244,1)	
L1D -376>	(113,24)	(51,12)	(168,1)	(0,21)	(345,4)	(8,46)	(16,6)	(337,3)	(98,2)	(440,14)	(55,9)	(245,3)	(-7,3)	(104,5)	(97,5)	(-12,2)	
L1D -375>	(-128,9)	(347,4)	(296,3)	(-64,4)	(197,6)	(1,7)	(-63,1)	(375,46)	(60,3)	(183,4)	(97,2)	(379,26)	(8,5)	(0,8)	(7,2)	(-55,3)	
L1D -374>	(6,2)	(122,7)	(1,47)	(8,9)	(-64,7)	(0,8)	(271,3)	(380,1)	(96,9)	(30,1)	(407,3)	(411,3)	(50,2)	(363,1)	(2,1)	(103,1)	
L1D -373>	(-64,29)	(0,10)	(79,3)	(1,13)	(243,2)	(3,1)	(271,14)	(373,3)	(6,1)	(394,1)	(259,1)	(252,1)	(244,1)	(284,1)	(250,1)	(302,1)	
L1D -372>	(0,29)	(-45,1)	(372,3)	(55,1)	(468,1)	(2,3)	(-72,6)	(-50,1)	(20,1)	(56,1)	(5,3)	(1,2)	(126,1)	(482,1)	(199,1)	(47,1)	
L1D -371>	(72,10)	(416,1)	(174,1)	(4,1)	(1,41)	(371,4)	(8,7)	(16,7)	(-1,1)	(0,8)	(-64,2)	(127,1)	(-8,4)	(46,15)	(60,1)	(96,1)	
L1D -370>	(0,6)	(16,5)	(8,13)	(370,6)	(1,5)	(-64,2)	(24,1)	(337,1)	(251,1)	(-8,1)	(458,1)	(192,1)	(34,1)	(371,14)	(261,1)	(265,1)	
L1D -369>	(-11,1)	(106,2)	(-64,16)	(277,1)	(274,1)	(4,1)	(8,8)	(2,3)	(0,1)	(16,1)	(160,1)	(157,2)	(367,3)	(369,1)	(371,2)	(-7,1)	
L1D -368>	(-8,4)	(0,6)	(437,4)	(368,57)	(361,21)	(438,31)	(8,3)	(366,3)	(440,7)	(439,16)	(-64,13)	(55,19)	(47,2)	(253,2)	(252,6)	(245,1)	
L1D -367>	(0,4)	(6,1)	(104,3)	(-64,36)	(368,4)	(-9,1)	(1,4)	(24,1)	(-1,2)	(62,1)	(17,2)	(367,5)	(235,1)	(371,4)	(2,3)	(108,1)	
L1D -366>	(418,1)	(8,1)	(385,1)	(88,1)	(0,5)	(-18,1)	(320,1)	(-64,5)	(241,1)	(399,1)	(1,3)	(366,2)	(252,1)	(365,1)	(4,1)	(449,1)	
L1D -365>	(-64,61)	(60,14)	(0,8)	(-1,2)	(4,1)	(366,2)	(1,1)	(365,4)	(235,1)	(-57,1)	(2,1)	(1,0)	(1,0)	(1,0)	(1,0)	(1,0)	
L1D -364>	(-64,95)	(8,1)	(7,1)	(316,2)	(364,9)	(227,1)	(236,4)	(365,1)	(0,4)	(-80,2)	(50,1)	(79,2)	(1,4)	(-8,1)	(172,1)	(78,1)	
L1D -363>	(-1,8)	(1,8)	(88,1)	(3,2)	(18,1)	(-64,1)	(-8,1)	(0,5)	(68,1)	(46,1)	(104,1)	(93,1)	(-16,1)	(378,1)	(363,2)	(299,1)	
L1D -362>	(-3,2)	(1,5)	(-64,27)	(0,19)	(283,2)	(464,1)	(230,1)	(341,1)	(366,1)	(314,1)	(400,1)	(468,1)	(362,5)	(78,2)	(2,1)	(6,3)	
L1D -361>	(0,37)	(1,6)	(-64,30)	(59,1)	(362,2)	(116,1)	(-8,3)	(361,7)	(-2,1)	(88,18)	(107,1)	(-1,3)	(91,1)	(62,2)	(-87,4)	(366,1)	
L1D -360>	(1,9)	(-1,2)	(0,8)	(-3,3)	(-128,14)	(88,2)	(8,1)	(-64,11)	(4,2)	(360,12)	(361,14)	(72,1)	(82,1)	(313,3)	(453,1)	(3,3)	
L1D -359>	(60,91)	(1,6)	(0,18)	(331,2)	(3,4)	(76,2)	(93,1)	(6,1)	(267,0)	(-2,0)	(-3,118)	(-128,1)	(-137,0)	(8,3)	(-64,2)	(359,2)	
L1D -358>	(8,2)	(0,23)	(358,4)	(-3,90)	(-64,2)	(1,8)	(275,1)	(3,8)	(243,1)	(128,7)	(234,1)	(60,4)	(80,6)	(20,1)	(-8,2)	(176,1)	
L1D -357>	(0,10)	(-128,26)	(229,1)	(1,5)	(357,4)	(5,4)	(79,2)	(6,1)	(88,1)	(-57,1)	(57,1)	(274,1)	(4,1)	(16,1)	(165,2)	(352,1)	
L1D -356>	(0,12)	(1,9)	(88,4)	(38,1)	(192,1)	(79,5)	(24,1)	(-18,1)	(356,3)	(87,1)	(113,2)	(447,1)	(50,1)	(-1,1)	(66,1)	(344,1)	
L1D -355>	(1,24)	(56,3)	(0,26)	(3,4)	(88,7)	(447,2)	(438,2)	(-14,1)	(-16,5)	(2,3)	(359,1)	(355,5)	(356,1)	(341,6)	(353,1)	(8,2)	
L1D -354>	(1,83)	(0,13)	(2,1)	(293,3)	(88,13)	(485,2)	(372,1)	(357,1)	(69,0)	(474,0)	(354,0)	(352,0)	(-4,0)	(1,0)	(1,0)	(1,0)	
L1D -353>	(0,54)	(1,26)	(-64,0)	(88,114)	(-1,1)	(2,2)	(6,0)	(1,0)	(1,0)	(1,0)	(1,0)	(1,0)	(1,0)	(1,0)	(1,0)	(1,0)	
L1D -352>	(0,84)	(88,48)	(-1,0)	(122,0)	(439,0)	(87,0)	(-64,0)	(1,1)	(1,0)	(1,0)	(1,0)	(1,0)	(1,0)	(1,0)	(1,0)	(1,0)	
L1D -351>	(0,41)	(1,3)	(88,76)	(351,0)	(3,0)	(87,0)	(352,0)	(-1,1)	(363,1)	(266,1)	(69,0)	(2,0)	(121,0)	(122,10)	(384,2)	(1,0)	
L1D -350>	(322,98)	(-3,1)	(366,0)	(448,1)	(420,0)	(1,0)	(1,0)	(1,0)	(1,0)	(1,0)	(1,0)	(1,0)	(1,0)	(1,0)	(1,0)	(1,0)	
L1D -349>	(334,2)	(-128,3)	(0,9)	(300,1)	(321,1)	(24,1)	(79,1)	(81,1)	(9,1)	(-108,1)	(244,2)	(225,1)	(350,1)	(17,1)	(349,1)	(89,2)	
L1D -348>	(-64,3)	(0,9)	(-32,1)	(349,1)	(122,4)	(2,1)	(348,5)	(1,3)	(6,1)	(320,61)	(-74,1)	(-16,1)	(234,2)	(3,1)	(-1,2)	(249,1)	
L1D -347>	(68,2)	(347,26)	(380,3)	(252,2)	(319,40)	(77,2)	(-64,3)	(265,2)	(-18,1)	(18,1)	(270,3)	(0,2)	(459,2)	(-1,1)	(64,1)	(258,1)	
L1D -346>	(341,23)	(4,102)	(0,12)	(64,1)	(-42,0)	(-64,3)	(156,0)	(267,0)	(1,0)	(1,0)	(1,0)	(1,0)	(1,0)	(1,0)	(1,0)	(1,0)	
L1D -345>	(2,4)	(1,3)	(-64,6)	(275,5)	(0,9)	(243,11)	(297,2)	(-3,2)	(23,3)	(274,2)	(-16,2)	(148,2)	(165,1)	(88,1)	(222,1)	(-128,3)	
L1D -344>	(0,13)	(-16,6)	(-64,10)	(-128,3)	(-8,9)	(316,3)	(-2,2)	(344,3)	(-7,6)	(106,2)	(336,1)	(458,1)	(347,1)	(4,1)	(-6,6)	(356,2)	
L1D -343>	(6,0)	(338,23)	(-10,0)	(-3,10)	(343,0)	(-70,0)	(162,101)	(-8,0)	(0,0)	(-128,0)	(252,0)	(3,5)	(363,0)	(1,0)	(1,0)	(1,0)	
L1D -342>	(-4,28)	(1,7)	(366,1)	(0,7)	(275,1)	(332,1)	(337,24)	(324,1)	(342,5)	(343,1)	(363,3)	(-20,1)	(-12,1)	(-128,3)	(334,1)	(143,1)	
L1D -341>	(0,29)	(341,9)	(5,29)	(4,49)	(48,1)	(34,0)	(358,96)	(346,1)	(1,0)	(1,0)	(1,0)	(1,0)	(1,0)	(1,0)	(1,0)	(1,0)	
L1D -340>	(-128,7)	(0,14)	(-64,4)	(454,12)	(4,2)	(453,11)	(1,4)	(340,2)	(3,1)	(-24,1)	(91,1)	(79,2)	(142,1)	(-8,2)	(128,1)	(380,1)	
L1D -339>	(1,4)	(-13,1)	(3,2)	(-64,12)	(0,23)	(458,6)	(4,1)	(342,6)	(-20,1)	(258,2)	(461,6)	(2,1)	(267,4)	(459,2)	(465,1)	(-1,1)	
L1D -338>	(1,15)	(-3,64)	(338,5)	(148,1)	(275,3)	(424,2)	(466,2)	(-64,2)	(343,11)	(0,1)	(339,1)	(8,0)	(24,2)	(146,0)	(-128,1)	(458,3)	
L1D -337>	(342,89)	(104,4)	(117,118)	(-4,32)	(167,13)	(114,92)	(241,1)	(277,1)	(337,2)	(275,35)	(274,8)	(243,1)	(361,1)	(276,5)	(0,1)	(-64,2)	
L1D -336>	(341,7)	(342,3)	(4,2)	(275,2)	(1,8)	(-128,20)	(348,3)	(38,2)	(344,1)	(122,1)	(336,8)	(-64,12)	(0,6)	(50,2)	(352,1)	(148,1)	
L1D -335>	(-64,103)	(0,4)	(6,1)	(15,31)	(-128,13)	(112,3)	(344,1)	(18,1)	(162,1)	(1,4)	(4,6)	(42,1)	(2,1)	(-3,2)	(-15,1)	(92,1)	
L1D -334>	(328,1)	(0,2)	(334,1)	(339,1)	(286,0)	(331,0)	(122,0)	(362,0)	(1,1)	(-11,74)	(-64,3)	(115,0)	(337,0)	(4,0)	(-51,0)	(1,0)	
L1D -333>	(0,7)	(23,1)	(35,1)	(1,5)	(-36,1)	(66,1)	(24,1)	(-1,2)	(54,1)	(333,3)	(92,1)	(-61,2)	(294,1)	(325,1)	(2,1)	(-64,3)	
L1D -332>	(-128,6)	(333,4)	(332,8)	(-64,1)	(122,1)	(50,1)	(1,3)	(-18,1)	(337,1)	(420,2)	(2,1)	(17,1)	(-8,1)	(0,5)	(113,1)	(272,1)	
L1D -331>	(322,8)	(-128,14)	(1,7)	(331,8)	(325,2)	(0,13)	(29,2)	(23,2)	(315,2)	(144,1)	(-1,2)	(-64,21)	(4,3)	(339,1)	(323,2)	(-62,1)	
L1D -330>	(329,6)	(4,4)	(0,25)	(276,2)	(5,4)	(258,2)	(485,2)	(267,6)	(-16,1)	(-64,15)	(330,15)	(229,2)	(450,3)	(268,3)	(126,1)	(1,4)	
L1D -329>	(329,3)	(242,2)	(296,2)	(0,19)	(239,1)	(139,1)	(130,2)	(-128,8)	(24,2)	(458,6)	(197,2)	(324,1)	(2,1)	(162,2)	(332,1)	(145,1)	
L1D -328>	(15,69)	(122,0)	(22,54)	(275,0)	(328,1)	(4,1)	(2,0)	(0,1)	(-6,0)	(-128,0)	(38,0)	(1,0)	(1,0)	(1,0)	(1,0)	(1,0)	
L1D -327>	(448,1)	(0,89)	(24,1)	(8,4)	(-128,6)	(64,1)	(-64,6)	(29,1)	(-15,1)	(251,1)	(47,1)	(5,6)	(6,1)	(229,1)	(113,1)	(-3,0)	
L1D -326>	(2,6)	(1,4)	(0,8)	(158,1)	(-128,24)	(123,1)	(120,1)	(-64,31)	(459,1)	(-52,8)	(-4,1)	(-51,2)	(-3,1)	(146,1)	(6,18)	(4,2)	
L1D -325>	(-11,126)	(-128,1)	(325,8)	(0,2)	(161,1)	(329,1)	(250,1)	(-6,0)	(115,0)	(-64,8)	(255,0)	(2,0)	(197,0)	(-51,4)	(377,0)	(190,0)	
L1D -324>	(113,15)	(-128,9)	(0,10)	(-12,9)	(1,3)	(122,24)	(-11,8)	(320,2)	(2,8)	(275,2)	(322,1)	(-64,4)	(465,5)	(71,1)	(-146,1)	(112,1)	
L1D -323>	(314,2)	(6,3)	(0,22)	(121,2)	(322,3)	(336,1)	(122,35)	(315,1)	(416,1)	(120,1)	(-1,1)	(1,8)	(-64,6)	(453,1)	(112,5)	(468,1)	
L1D -322>	(86,0)	(323,1)	(-8,0)	(-64,0)	(417,0)	(-3,0)	(321,0)	(-63,0)	(315,0)	(322,0)	(0,1)	(409,0)	(350,0)	(96,0)	(-53,75)	(128,0)	
L1D -321>	(16,91)	(8,2)	(1,31)	(2,2)	(348,35)	(-64,58)	(0,19)	(321,9)	(66,2)	(107,2)	(453,2)	(454,9)	(-1,3)	(352,1)	(499,1)	(6,1)	
L1D -320>	(348,123)	(-6,1)	(16,69)	(462,3)	(287,1)	(1,49)	(0,3)	(-64,1)	(9,0)	(122,1)	(347,0)	(24,0)	(1,0)	(1,0)	(1,0)	(1,0)	
L1D -319>	(347,119)	(-2,0)	(23,0)	(375,0)	(191,0)	(316,0)	(-10,0)	(24,0)	(6,1)	(1,0)	(1,0)	(1,0)	(1,0)	(1,0)	(1,0)	(1,0)	
L1D -318>	(40,5)	(-11,1)	(9,17)	(111,2)	(0,18)	(4,9)	(317,4)	(-14,6)	(120,11)	(119,2)	(330,2)	(197,10)	(190,5)	(285,2)	(-64,24)	(-7,3)	
L1D -317>	(23,2)	(-64,4)	(4,12)	(0,13)	(-11,11)	(197,7)	(317,15)	(-6,3)	(189,2)	(-15,5)	(2,11)	(122,2)	(133,1)	(32,1)	(1,1)	(330,1)	
L1D -316>	(0,17)	(-7,3)	(-6,13)	(316,24)	(-11,18)	(-2,9)	(122,20)	(115,6)	(381,2)	(80,2)	(64,2)	(1,2)	(479,1)	(3,2)	(192,1)	(213,2)	
L1D -315>	(267,3)	(6,2)	(4,2)	(-64,8)	(0,16)	(26,1)	(121,3)	(315,6)	(113,2)	(18,1)	(434,1)	(1,2)	(-2,1)	(317,1)	(285,2)	(128,1)	
L1D -314>	(-5,2)	(4,2)	(0,10)	(-4,6)	(128,2)	(1,7)	(-64,57)	(5,13)	(113,1)	(120,4)	(8,1)	(88,2)	(182,1)	(314,7)	(61,2)	(316,1)	
L1D -313>	(-5,13)	(0,16)	(313,125)	(-3,3)	(257,1)	(1,3)	(-6,3)	(115,4)	(5,2)	(255,2)	(197,31)	(-86,11)	(-4,9)	(24,2)	(-128,5)	(-20,2)	
L1D -312>	(312,17)	(332,2)	(7,1)	(0,10)	(184,2)	(6,1)	(-64,89)	(114,4)	(1,3)	(4,3)	(-7,11)	(-8,1)	(-128,3)	(35,1)	(243,2)	(259,1)	
L1D -311>	(312,6)	(330,7)	(7,4)	(-64,22)	(3,34)	(0,9)	(199,3)	(89,65)	(311,4)	(101,2)	(113,2)	(-128,11)	(329,4)	(197,2)	(1,3)	(-13,2)	
L1D -310>	(91,3)	(1,6)	(199,3)	(82,5)	(168,11)	(-9,3)	(308,2)	(4,5)	(3,11)	(12,13)	(-10,13)	(0,4)	(57,2)	(-64,13)	(330,4)	(304,10)	
L1D -309>	(457,5)	(255,4)	(307,4)	(-64,66)	(12,2)	(347,1)	(256,2)	(-9,4)	(308,2)	(259,2)	(199,4)	(330,5)	(309,34)	(316,6)	(267,6)	(458,2)	
L1D -308>	(109,2)	(308,104)	(5,8)	(0,10)	(106,3)	(422,2)	(458,2)	(306,4)	(80,1)	(2,5)	(7,1)	(1,2)	(309,1)	(101,5)	(104,1)	(165,2)	
L1D -307>	(0,6)	(458,27)	(305,4)	(-5,1)	(339,1)	(291,1)	(5,1)	(307,108)	(255,4)	(347,2)	(18,4)	(-64,7)	(26,1)	(287,1)	(256,4)	(264,1)	
L1D -306>	(0,97)	(3,0)	(306,12)	(370,0)	(24,0)	(8,2)	(-4,0)	(304,4)	(55,0)	(1,0)	(1,0)	(1,0)	(1,0)	(1,0)	(1,0)	(1,0)	
L1D -305>	(457,13)	(305,47)	(409,4)	(-64,88)	(0,10)	(4,4)	(303,4)	(3,1)	(321,3)	(-11,3)	(24,24)	(264,2)	(263,2)	(311,2)	(43,2)	(257,4)	
L1D -304>	(57,2)	(382,7)	(0,20)	(174,4)	(7,7)	(1,3)	(20,5)	(303,2)	(-7,7)	(302,5)	(263,1)	(-12,4)	(4,5)	(304,49)	(-128,71)	(-64,5)	
L1D -303>	(0,22)	(-20,2)	(301,4)	(24,4)	(381,1)	(3,3)	(322,2)	(-64,28)	(27,2)	(-16,2)	(2,1)	(32,2)	(-8,10)	(-26,1)	(461,3)	(288,2)	
L1D -302>	(1,21)	(148,5)	(0,14)	(-9,14)	(301,7)	(-3,8)	(16,1)	(7,8)	(-64,13)	(-1,4)	(302,7)	(159,6)	(-2,10)	(300,4)	(409,28)	(-128,7)	
L1D -301>	(-64,53)	(2,4)	(24,24)	(6,6)	(457,3)	(0,22)	(-8,36)	(449,4)	(9,12)	(-18,5)	(299,4)	(1,10)	(-4,23)	(301,16)	(462,2)	(8,12)	
L1D -300>	(197,8)	(157,4)	(-64,91)	(-4,8)	(-8,3)	(6,4)	(3,1)	(0,28)	(1,5)	(300,14)	(255,4)	(183,14)	(66,3)	(57,2)	(9,2)	(298,3)	
L1D -299>	(321,71)	(9,2)	(88,3)	(14,5)	(1,3)	(0,18)	(276,2)	(297,4)	(335,1)	(-128,1)	(-76,1)	(121,2)	(6,2)	(448,1)	(299,1)	(-64,2)	
L1D -298>	(1,20)	(-80,1)	(-24,20)	(0,21)	(-14,3)	(296,7)	(301,4)	(120,7)	(-13,56)	(449,2)	(6,2)	(271,2)	(288,2)	(15,2)	(298,5)	(16,4)	
L1D -297>	(26,4)	(288,5)	(1,107)	(0,93)	(-64,6)	(-2,4)	(457,2)	(449,1)	(264,1)	(297,6)	(24,3)	(295,6)	(-13,2)	(6,5)	(459,1)	(-128,3)	
L1D -296>	(75,12)	(-4,11)	(296,15)	(-26,2)	(57,5)	(252,3)	(0,21)	(-64,52)	(472,2)	(271,5)	(448,4)	(4,2)	(294,4)	(19,4)	(-128,9)	(259,1)	
L1D -295>	(0,22)	(295,66)	(6,10)	(293,5)	(192,2)	(-16,5)	(98,1)	(409,2)	(287,1)	(-128,39)	(82,2)	(2,2)	(47,1)	(461,3)	(337,2)	(361,2)	
L1D -294>	(0,17)	(-50,1)	(297,2)	(291,39)	(15,72)	(12,2)	(67,35)	(255,2)	(14,12)	(76,30)	(-13,4)	(326,2)	(294,54)	(197,2)	(292,4)	(-64,5)	
L1D -293>	(457,16)	(264,12)	(6,8)	(0,23)	(263,1)	(272,4)	(458,5)	(293,71)	(197,48)	(24,8)	(326,18)	(1,6)	(459,7)	(361,18)	(288,10)	(337,6)	
L1D -292>	(0,16)	(246,4)	(-1,7)	(-64,20)	(459,7)	(66,8)	(337,6)	(292,84)	(76,21)	(69,29)	(67,16)	(287,1)	(361,15)	(290,9)	(451,5)	(326,11)	
L1D -291>	(294,73)	(289,4)	(291,32)	(0,7)	(458,29)	(266,4)	(66,10)	(347,6)	(472,4)	(287,8)	(-14,5)	(280,3)	(20,1)	(288,13)	(348,2)	(255,2)	
L1D -290>	(2,7)	(1,10)	(0,29)	(-8,23)	(70,27)	(263,11)	(288,3)	(258,7)	(293,1)	(7,3)	(197,19)	(19,5)	(442,2)	(342,3)	(3,4)	(290,67)	
L1D -289>	(457,29)	(264,77)	(32,2)	(267,32)	(250,19)	(259,5)	(272,57)	(260,4)	(211,4)	(263,24)	(275,48)	(291,8)	(288,77)	(289,9)	(338,4)	(290,6)	
L1D -288>	(288,32)	(-14,2)	(249,5)	(256,8)	(465,6)	(250,5)	(252,3)	(0,31)	(280,3)	(211,49)	(105,125)	(-128,4)	(304,6)	(286,4)	(281,19)	(1,11)	
L1D -287>	(197,6)	(453,18)	(-64,4)	(289,1)	(211,64)	(451,3)	(0,26)	(285,4)	(122,6)	(461,32)	(113,3)	(105,37)	(24,4)	(287,8)	(2,8)	(1,10)	
L1D -286>	(-5,5)	(393,4)	(211,65)	(-11,23)	(1,1)	(197,7)	(416,6)	(-64,5)	(112,3)	(0,16)	(284,3)	(-9,11)	(-7,97)	(-16,8)	(60,3)	(20,7)	
L1D -285>	(6,7)	(211,15)	(499,4)	(197,5)	(285,20)	(283,4)	(3,12)	(98,5)	(0,17)	(271,3)	(7,4)	(120,12)	(24,5)	(1,4)	(-9,4)	(255,1)	
L1D -284>	(211,15)	(280,8)	(281,33)	(255,3)	(0,30)	(340,49)	(105,21)	(287,6)	(249,11)	(284,40)	(288,41)	(341,5)	(252,6)	(97,7)	(1,5)	(6,5)	
L1D -283>	(255,18)	(282,6)	(283,11)	(281,4)	(105,36)	(275,7)	(211,24)	(0,39)	(96,21)	(147,1)	(384,5)	(292,6)	(416,5)	(256,3)	(112,8)	(197,4)	
L1D -282>	(342,5)	(-29,4)	(313,1)	(252,9)	(283,4)	(211,11)	(197,37)	(0,57)	(286,3)	(282,10)	(1,52)	(288,3)	(19,12)	(20,5)	(465,3)	(292,3)	
L1D -281>	(-128,15)	(292,46)	(211,5)	(0,16)	(449,7)	(265,7)	(279,17)	(321,5)	(256,22)	(260,40)	(-2,10)	(273,1)	(105,33)	(275,14)	(274,8)	(268,19)	
L1D -280>	(0,17)	(-8,7)	(271,7)	(278,4)	(255,8)	(252,98)	(448,2)	(281,11)	(260,4)	(264,38)	(284,46)	(256,12)	(248,15)	(283,5)	(288,3)	(-128,35)	
L1D -279>	(256,29)	(-128,17)	(257,5)	(277,4)	(267,14)	(8,25)	(105,29)	(453,71)	(255,19)	(197,12)	(-3,15)	(0,40)	(6,1)	(344,4)	(274,14)	(325,5)	
L1D -278>	(16,2)	(281,2)	(0,90)	(276,4)	(-64,8)	(278,5)	(20,4)	(283,1)	(19,9)	(113,4)	(-6,1)	(272,1)	(104,1)	(254,2)	(274,1)	(471,1)	
L1D -277>	(0,110)	(277,23)	(273,46)	(240,1)	(95,1)	(348,1)	(368,7)	(283,4)	(415,1)	(319,1)	(-15,1)	(250,1)	(20,1)	(350,1)	(163,1)	(275,1)	
L1D -276>	(2,4)	(368,2)	(95,11)	(0,11)	(274,2)	(105,6)	(-64,6)	(256,2)	(104,3)	(276,76)	(89,15)	(279,4)	(20,6)	(356,3)	(19,8)	(311,3)	
L1D -275>	(275,20)	(-64,6)	(105,12)	(26,6)	(368,11)	(343,12)	(0,117)	(6,1)	(326,28)	(459,19)	(307,6)	(274,8)	(317,9)	(310,10)	(361,62)	(335,8)	
L1D -274>	(276,11)	(249,4)	(1,27)	(0,51)	(304,5)	(326,11)	(250,14)	(293,1)	(-2,7)	(2,20)	(96,5)	(309,11)	(459,7)	(8,21)	(334,3)	(211,41)	
L1D -273>	(277,70)	(1,17)	(17,1)	(283,2)	(274,2)	(251,9)	(211,49)	(275,1)	(280,3)	(247,2)	(273,2)	(0,18)	(279,1)	(256,1)	(271,2)	(272,17)	
L1D -272>	(0,55)	(95,4)	(264,15)	(272,7)	(268,5)	(252,5)	(1,46)	(211,78)	(16,2)	(-64,18)	(271,2)	(270,4)	(-128,11)	(260,6)	(258,2)	(275,1)	
L1D -271>	(1,5)	(271,7)	(0,19)	(-128,11)	(5,2)	(445,1)	(279,1)	(269,4)	(211,110)	(272,1)	(6,1)	(66,1)	(-4,2)	(264,0)	(-64,4)	(105,1)	
L1D -270>	(0,23)	(268,2)	(271,3)	(-123,1)	(122,1)	(211,46)	(275,1)	(270,30)	(-64,4)	(283,1)	(20,1)	(222,1)	(-14,1)	(-128,2)	(16,3)	(1,123)	
L1D -269>	(26,6)	(-4,20)	(3,119)	(468,5)	(268,3)	(439,7)	(0,26)	(1,3)	(448,11)	(-80,3)	(462,1)	(78,2)	(120,2)	(211,106)	(-20,3)	(13,10)	
L1D -268>	(248,8)	(273,10)	(281,34)	(20,22)	(0,27)	(10,1)	(2,19)	(256,126)	(19,44)	(465,43)	(282,10)	(451,14)	(288,32)	(249,9)	(268,33)	(328,5)	
L1D -267>	(1,76)	(420,74)	(412,64)	(95,121)	(106,9)	(-64,36)	(112,9)	(211,17)	(89,14)	(81,8)	(411,26)	(0,67)	(80,23)	(315,8)	(444,12)	(271,1)	
L1D -266>	(19,6)	(0,17)	(1,78)	(-4,2)	(277,1)	(4,2)	(264,4)	(272,1)	(266,4)	(-20,2)	(459,2)	(267,1)	(268,3)	(252,1)	(88,5)	(293,2)	
L1D -265>	(0,36)	(273,1)	(1,75)	(-20,1)	(-4,1)	(165,1)	(266,5)	(282,1)	(262,1)	(293,1)	(288,0)	(88,31)	(485,0)	(-128,0)	(258,1)	(-1,4)	
L1D -264>	(285,1)	(0,62)	(88,81)	(288,0)	(253,0)	(-2,0)	(19,0)	(-5,0)	(1,2)	(391,0)	(-1,5)	(262,0)	(281,0)	(265,0)	(20,0)	(293,0)	
L1D -263>	(26,2)	(-1,4)	(437,2)	(0,61)	(-7,1)	(24,4)	(261,4)	(1,11)	(-128,15)	(88,91)	(87,3)	(341,1)	(348,1)	(86,1)	(263,4)	(66,1)	
L1D -262>	(183,3)	(-8,5)	(20,24)	(2,11)	(-64,7)	(197,11)	(1,3)	(262,14)	(0,30)	(79,4)	(260,4)	(6,1)	(-12,4)	(265,2)	(8,4)	(19,5)	
L1D -261>	(243,4)	(24,8)	(270,9)	(122,40)	(26,38)	(465,4)	(115,9)	(2,43)	(259,4)	(261,56)	(183,41)	(0,102)	(1,23)	(10,7)	(377,12)	(60,1)	
L1D -260>	(465,13)	(0,44)	(2,5)	(448,7)	(5,10)	(112,9)	(8,20)	(340,21)	(1,21)	(260,103)	(-64,6)	(469,6)	(447,2)	(319,9)	(258,4)	(121,17)	
L1D -259>	(292,5)	(290,5)	(310,3)	(24,1)	(121,17)	(112,15)	(3,6)	(264,4)	(122,29)	(1,7)	(352,2)	(120,15)	(2,7)	(105,3)	(0,66)	(-1,7)	
L1D -258>	(95,8)	(62,64)	(0,4)	(1,16)	(288,1)	(256,5)	(8,2)	(281,0)	(120,4)	(260,31)	(111,1)	(272,2)	(264,1)	(258,11)	(485,1)	(292,5)	
L1D -257>	(0,80)	(98,99)	(256,3)	(120,5)	(60,119)	(272,2)	(19,1)	(257,2)	(122,3)	(97,1)	(99,4)	(61,17)	(260,7)	(24,3)	(258,11)	(282,1)	
L1D -256>	(254,4)	(1,124)	(285,31)	(264,10)	(260,17)	(252,15)	(262,14)	(256,15)	(281,1)	(20,6)	(273,6)	(258,16)	(0,54)	(69,7)	(286,10)	(251,17)	
L1D -255>	(253,2)	(84,85)	(0,80)	(250,32)	(255,2)	(16,1)	(259,1)	(26,3)	(197,3)	(-64,1)	(8,2)	(136,1)	(248,0)	(-8,14)	(7,1)	(-20,1)	
L1D -254>	(2,25)	(263,5)	(252,4)	(257,7)	(0,27)	(121,15)	(1,23)	(-64,4)	(20,45)	(8,12)	(-16,1)	(254,22)	(-7,10)	(197,5)	(7,5)	(-8,6)	
L1D -253>	(264,3)	(262,6)	(357,10)	(341,6)	(251,4)	(253,26)	(-64,9)	(69,8)	(8,5)	(0,67)	(114,3)	(452,13)	(257,5)	(122,2)	(1,11)	(333,8)	
L1D -252>	(7,65)	(285,2)	(2,1)	(211,1)	(255,3)	(303,3)	(278,1)	(69,1)	(6,20)	(448,1)	(253,1)	(0,3)	(113,1)	(56,0)	(340,0)	(-65,0)	
L1D -251>	(-64,2)	(5,78)	(251,2)	(-17,1)	(249,1)	(120,0)	(416,0)	(-7,0)	(-20,0)	(3,1)	(1,72)	(4,0)	(-1,20)	(0,2)	(113,0)	(-9,0)	
L1D -250>	(101,15)	(84,6)	(121,61)	(256,21)	(250,110)	(281,1)	(102,27)	(94,4)	(110,3)	(113,10)	(91,17)	(104,80)	(114,5)	(265,7)	(264,31)	(260,20)	
L1D -249>	(264,27)	(260,20)	(24,23)	(288,7)	(256,10)	(273,10)	(272,7)	(357,16)	(0,12)	(292,7)	(265,4)	(249,16)	(250,4)	(268,4)	(465,5)	(133,1)	
L1D -248>	(284,6)	(113,9)	(297,34)	(248,14)	(211,88)	(281,4)	(19,1)	(299,12)	(447,3)	(256,4)	(20,14)	(249,7)	(264,16)	(252,38)	(0,6)	(268,3)	
L1D -247>	(26,37)	(247,27)	(326,4)	(226,9)	(197,9)	(0,74)	(1,9)	(16,26)	(337,6)	(-8,5)	(273,1)	(249,4)	(255,3)	(325,2)	(8,55)	(245,3)	
L1D -246>	(246,16)	(-128,1)	(-76,9)	(396,3)	(0,118)	(19,41)	(-6,10)	(-64,24)	(79,3)	(40,11)	(-18,3)	(1,13)	(-7,9)	(20,9)	(244,4)	(4,4)	
L1D -245>	(250,103)	(-9,1)	(-6,11)	(438,4)	(56,15)	(13,27)	(211,101)	(245,5)	(243,5)	(128,5)	(1,1)	(247,2)	(26,1)	(0,3)	(24,2)	(16,1)	
L1D -244>	(244,6)	(0,64)	(-7,2)	(20,3)	(242,3)	(18,1)	(-64,10)	(10,2)	(-1,1)	(-5,1)	(1,7)	(56,1)	(-20,2)	(-10,1)	(249,1)	(71,1)	
L1D -243>	(3,100)	(0,37)	(24,6)	(210,2)	(4,3)	(13,11)	(245,2)	(319,1)	(-64,4)	(435,4)	(241,2)	(243,9)	(-26,1)	(89,1)	(104,3)	(6,1)	
L1D -242>	(47,113)	(242,8)	(232,2)	(2,5)	(1,3)	(-64,1)	(-20,3)	(0,47)	(435,15)	(-8,2)	(431,2)	(376,1)	(20,6)	(203,3)	(216,4)	(240,5)	
L1D -241>	(1,7)	(234,1)	(24,25)	(241,24)	(0,28)	(26,46)	(274,11)	(-9,29)	(-64,12)	(246,5)	(209,4)	(239,4)	(10,21)	(3,3)	(442,16)	(79,7)	
L1D -240>	(238,2)	(2,1)	(0,5)	(234,1)	(19,2)	(64,104)	(447,4)	(20,3)	(269,1)	(240,1)	(104,1)	(24,0)	(357,0)	(-64,5)	(203,1)	(208,0)	
L1D -239>	(239,58)	(-20,14)	(0,38)	(-9,4)	(-128,8)	(1,63)	(428,3)	(241,7)	(237,4)	(79,8)	(-64,48)	(70,3)	(244,8)	(19,1)	(-7,10)	(438,2)	
L1D -238>	(236,4)	(-9,7)	(450,4)	(266,7)	(357,4)	(-64,14)	(-20,1)	(0,22)	(237,3)	(2,7)	(446,3)	(238,20)	(12,35)	(20,14)	(404,13)	(398,8)	
L1D -237>	(13,4)	(309,7)	(251,9)	(235,4)	(404,14)	(-9,5)	(239,3)	(-20,5)	(237,8)	(-17,3)	(384,10)	(249,1)	(55,3)	(0,33)	(47,7)	(377,2)	
L1D -236>	(2,3)	(0,25)	(236,13)	(-16,2)	(-144,2)	(19,5)	(-64,112)	(427,6)	(166,1)	(1,12)	(208,1)	(234,2)	(423,4)	(32,1)	(-20,3)	(323,1)	
L1D -235>	(235,21)	(395,10)	(338,1)	(2,14)	(1,6)	(-1,6)	(233,4)	(0,17)	(24,5)	(68,4)	(427,49)	(444,4)	(6,8)	(-20,6)	(29,3)	(423,10)	
L1D -234>	(275,1)	(0,20)	(-18,5)	(-64,8)	(-6,5)	(-2,5)	(195,13)	(20,3)	(234,3)	(208,21)	(19,7)	(232,3)	(32,5)	(-8,2)	(2,3)	(1,2)	
L1D -233>	(17,68)	(309,4)	(6,2)	(231,4)	(-20,3)	(233,17)	(-64,4)	(24,8)	(0,10)	(1,7)	(229,2)	(238,2)	(227,9)	(3,3)	(234,1)	(235,2)	
L1D -232>	(0,21)	(429,5)	(-64,15)	(1,57)	(202,5)	(233,13)	(19,11)	(195,19)	(232,16)	(224,14)	(208,16)	(292,18)	(315,7)	(4,2)	(300,7)	(20,11)	
L1D -231>	(395,89)	(284,13)	(231,5)	(226,2)	(0,24)	(78,2)	(7,2)	(229,3)	(29,1)	(150,1)	(2,2)	(259,1)	(233,5)	(-20,4)	(79,1)	(-64,61)	
L1D -230>	(2,9)	(0,15)	(230,6)	(78,9)	(-6,2)	(223,5)	(-128,21)	(-64,3)	(79,3)	(228,4)	(20,12)	(-18,3)	(1,5)	(357,2)	(38,1)	(229,6)	
L1D -229>	(0,91)	(374,8)	(24,2)	(-64,1)	(419,5)	(-9,27)	(110,1)	(227,2)	(197,2)	(3,1)	(223,3)	(229,10)	(300,2)	(7,5)	(231,4)	(2,2)	
L1D -228>	(-20,19)	(9,9)	(236,8)	(228,1)	(226,4)	(429,24)	(292,20)	(415,21)	(0,19)	(296,20)	(419,4)	(1,22)	(32,8)	(300,20)	(315,12)	(227,9)	
L1D -227>	(1,16)	(357,14)	(227,66)	(0,16)	(-1,5)	(-20,11)	(-64,8)	(225,4)	(8,9)	(68,18)	(2,4)	(188,16)	(71,6)	(6,4)	(110,7)	(47,1)	
L1D -226>	(0,64)	(232,19)	(-18,1)	(6,5)	(-26,3)	(21,31)	(127,5)	(310,9)	(-55,11)	(-66,5)	(226,26)	(311,11)	(222,5)	(-60,6)	(24,45)	(-8,11)	
L1D -225>	(225,68)	(1,62)	(0,24)	(24,66)	(-1,1)	(28,2)	(29,4)	(-20,28)	(-2,9)	(232,4)	(218,6)	(-66,6)	(236,6)	(-64,19)	(227,8)	(223,4)	
L1D -224>	(0,54)	(-248,96)	(-184,20)	(-64,75)	(199,10)	(211,8)	(-128,5)	(224,43)	(19,18)	(-18,12)	(192,7)	(232,1)	(66,6)	(208,7)	(-4,9)	(1,32)	
L1D -223>	(71,4)	(387,20)	(0,38)	(225,5)	(223,32)	(276,4)	(2,12)	(40,1)	(227,20)	(-20,18)	(79,2)	(7,7)	(221,4)	(-64,33)	(-184,31)	(192,3)	
L1D -222>	(1,20)	(226,17)	(-257,25)	(0,35)	(240,1)	(2,14)	(33,5)	(222,4)	(446,4)	(411,13)	(208,10)	(69,3)	(-20,13)	(-64,6)	(220,4)	(-250,5)	
L1D -221>	(0,71)	(-175,10)	(1,40)	(-24,16)	(221,38)	(74,1)	(29,3)	(-248,3)	(78,2)	(49,2)	(2,47)	(219,4)	(311,6)	(319,3)	(-186,8)	(22,2)	
L1D -220>	(-9,6)	(2,6)	(24,6)	(-20,23)	(0,105)	(-1,5)	(-64,42)	(-175,20)	(-265,1)	(-260,8)	(208,9)	(218,4)	(1,23)	(-132,8)	(192,10)	(64,70)	
L1D -219>	(-9,4)	(-64,17)	(197,6)	(-258,3)	(219,90)	(217,4)	(224,8)	(-20,4)	(228,27)	(-8,16)	(211,2)	(0,41)	(255,6)	(-267,3)	(7,4)	(3,6)	
L1D -218>	(203,8)	(208,6)	(193,6)	(222,1)	(0,74)	(-2,12)	(-191,7)	(209,10)	(51,25)	(7,4)	(1,68)	(21,9)	(-139,10)	(2,20)	(216,4)	(217,7)	
L1D -217>	(217,17)	(0,23)	(80,4)	(26,10)	(215,4)	(224,6)	(29,6)	(19,6)	(1,7)	(-2,12)	(-20,4)	(-248,64)	(208,6)	(-36,1)	(232,5)	(209,15)	
L1D -216>	(43,20)	(-64,20)	(1,14)	(204,57)	(2,13)	(0,60)	(384,1)	(39,12)	(191,30)	(193,7)	(407,41)	(203,19)	(-256,22)	(195,8)	(20,77)	(27,22)	
L1D -215>	(-2,23)	(276,14)	(0,84)	(-241,3)	(403,7)	(27,4)	(1,6)	(2,16)	(-257,26)	(255,3)	(213,4)	(-192,23)	(-128,4)	(379,12)	(30,6)	(26,1)	
L1D -214>	(0,89)	(214,2)	(-194,3)	(-248,1)	(-64,8)	(413,1)	(278,1)	(1,2)	(-20,1)	(41,0)	(212,0)	(-184,0)	(-226,1)	(-193,0)	(-23,0)	(-258,0)	
L1D -213>	(0,66)	(-20,0)	(211,0)	(-252,0)	(208,0)	(220,0)	(213,0)	(14,0)	(-64,2)	(158,0)	(8,0)	(1,2)	(7,0)	(60,0)	(-258,0)	(-194,8)	
L1D -212>	(210,4)	(0,64)	(310,8)	(-238,4)	(88,14)	(3,8)	(212,127)	(364,1)	(-254,15)	(80,37)	(-20,13)	(38,4)	(191,12)	(-248,6)	(1,5)	(101,5)	
L1D -211>	(-175,4)	(-259,6)	(211,54)	(-64,60)	(209,4)	(6,7)	(-138,6)	(362,2)	(-251,3)	(-198,6)	(-2,3)	(0,53)	(1,60)	(83,12)	(-20,13)	(168,2)	
L1D -210>	(8,10)	(0,47)	(24,2)	(-183,4)	(128,3)	(-2,9)	(210,17)	(82,9)	(-257,26)	(2,3)	(-64,10)	(1,12)	(-9,4)	(-8,3)	(209,11)	(208,6)	
L1D -209>	(-139,4)	(-256,32)	(26,58)	(1,8)	(68,4)	(-276,5)	(79,4)	(9,7)	(192,1)	(0,55)	(24,16)	(364,10)	(-64,7)	(-9,14)	(83,7)	(8,6)	
L1D -208>	(80,16)	(0,61)	(-4,11)	(208,112)	(-128,20)	(206,4)	(404,4)	(364,1)	(-64,88)	(-16,12)	(-7,4)	(35,4)	(19,5)	(-264,73)	(-200,31)	(-192,9)	
L1D -207>	(207,28)	(205,2)	(0,19)	(404,4)	(209,3)	(-247,3)	(151,2)	(-232,1)	(191,1)	(-64,69)	(2,2)	(19,1)	(364,10)	(-200,1)	(-258,1)	(5,2)	
L1D -206>	(-18,4)	(-256,2)	(404,80)	(0,16)	(206,21)	(398,34)	(237,1)	(276,7)	(40,3)	(41,1)	(20,2)	(-64,4)	(2,1)	(6,1)	(-266,1)	(4,5)	
L1D -205>	(215,3)	(0,2)	(246,1)	(-248,1)	(205,14)	(-184,2)	(247,2)	(-100,1)	(-216,1)	(384,25)	(258,1)	(249,3)	(276,2)	(391,1)	(375,4)	(404,102)	
L1D -204>	(15,6)	(-249,8)	(27,10)	(0,82)	(43,8)	(211,1)	(204,68)	(207,3)	(209,13)	(-64,63)	(-4,53)	(1,9)	(202,4)	(193,3)	(208,10)	(62,5)	
L1D -203>	(192,4)	(-249,3)	(195,13)	(63,4)	(69,4)	(1,4)	(-64,111)	(203,43)	(55,16)	(-205,11)	(0,30)	(64,41)	(-175,5)	(80,1)	(128,12)	(-186,4)	
L1D -202>	(63,5)	(69,7)	(-249,9)	(15,7)	(-1,13)	(-206,41)	(87,5)	(-259,5)	(192,7)	(0,41)	(201,1)	(24,10)	(202,47)	(208,4)	(213,15)	(-228,6)	
L1D -201>	(-194,5)	(-1,11)	(63,10)	(69,10)	(208,13)	(201,19)	(-6,1)	(209,11)	(-264,61)	(0,63)	(197,16)	(387,5)	(-5,10)	(-8,8)	(191,4)	(-24,8)	
L1D -200>	(-1,12)	(-64,43)	(200,46)	(-132,6)	(115,4)	(198,4)	(-18,9)	(-9,26)	(213,6)	(-2,1)	(196,8)	(0,41)	(209,38)	(8,47)	(208,27)	(38,7)	
L1D -199>	(-64,98)	(-18,33)	(0,84)	(356,13)	(1,6)	(183,6)	(-130,6)	(9,13)	(199,12)	(-22,1)	(7,4)	(195,4)	(-260,13)	(197,6)	(-138,26)	(10,8)	
L1D -198>	(25,1)	(-248,7)	(-18,6)	(-64,60)	(-26,5)	(0,41)	(-9,16)	(-128,27)	(183,4)	(197,15)	(409,8)	(1,6)	(196,4)	(-8,15)	(-7,5)	(-3,7)	
L1D -197>	(1,4)	(0,69)	(5,6)	(-140,4)	(78,4)	(-64,12)	(-181,15)	(197,123)	(313,8)	(194,1)	(195,2)	(229,2)	(-86,6)	(282,3)	(190,3)	(300,2)	
L1D -196>	(0,55)	(-197,14)	(-24,5)	(213,4)	(194,4)	(-206,53)	(196,112)	(401,4)	(-182,23)	(-18,5)	(-228,10)	(-4,1)	(-213,6)	(67,8)	(209,5)	(49,20)	
L1D -195>	(274,7)	(238,8)	(190,7)	(64,8)	(-64,16)	(195,64)	(176,9)	(-214,26)	(-32,36)	(-224,1)	(0,76)	(-1,12)	(213,6)	(14,11)	(-256,41)	(174,8)	
L1D -194>	(-64,41)	(-184,9)	(66,6)	(208,44)	(-128,48)	(194,36)	(379,7)	(-60,7)	(197,1)	(240,5)	(209,9)	(-275,19)	(83,16)	(51,6)	(155,6)	(0,49)	
L1D -193>	(0,86)	(1,21)	(193,38)	(155,15)	(8,65)	(317,6)	(208,14)	(177,6)	(-64,28)	(-242,8)	(-269,1)	(-289,37)	(79,4)	(199,7)	(-92,5)	(209,7)	
L1D -192>	(221,4)	(-250,3)	(-64,16)	(-228,3)	(192,76)	(153,7)	(0,12)	(140,1)	(154,19)	(198,4)	(155,2)	(194,7)	(20,8)	(-235,3)	(-242,2)	(-175,2)	
L1D -191>	(-188,1)	(-64,9)	(153,94)	(152,3)	(191,8)	(154,5)	(-235,9)	(0,13)	(9,1)	(-239,8)	(20,4)	(6,1)	(-1,1)	(197,4)	(44,1)	(-216,2)	
L1D -190>	(152,102)	(153,53)	(5,28)	(-64,68)	(404,25)	(-235,1)	(-9,2)	(-55,4)	(105,5)	(-232,5)	(1,11)	(151,2)	(197,29)	(-289,32)	(0,17)	(190,12)	
L1D -189>	(152,59)	(-9,7)	(197,4)	(151,88)	(5,10)	(404,14)	(365,8)	(6,13)	(105,20)	(-64,20)	(-225,11)	(-175,24)	(1,7)	(0,24)	(150,7)	(362,1)	
L1D -188>	(23,4)	(151,41)	(150,74)	(0,33)	(-205,26)	(5,38)	(303,4)	(27,1)	(-32,2)	(2,7)	(188,14)	(-64,19)	(1,13)	(-256,14)	(-218,14)	(105,6)	
L1D -187>	(148,4)	(150,5)	(7,4)	(-25,2)	(149,39)	(2,1)	(187,24)	(0,16)	(-289,1)	(1,2)	(-205,87)	(-206,7)	(5,7)	(-211,6)	(-20,5)	(-64,15)	
L1D -186>	(213,5)	(148,98)	(186,39)	(208,31)	(2,64)	(-206,88)	(1,12)	(105,8)	(149,20)	(197,7)	(5,17)	(-64,34)	(0,112)	(233,2)	(7,7)	(6,12)	
L1D -185>	(104,41)	(-279,14)	(147,97)	(185,52)	(-72,13)	(148,16)	(-8,101)	(-5,42)	(5,43)	(-191,1)	(-64,24)	(153,15)	(105,57)	(7,37)	(2,47)	(-4,12)	
L1D -184>	(183,8)	(-5,41)	(184,48)	(6,16)	(-64,56)	(2,62)	(-216,17)	(0,79)	(7,32)	(-70,36)	(1,32)	(313,1)	(-224,7)	(-205,66)	(-258,45)	(5,39)	
L1D -183>	(6,14)	(-2,7)	(-5,41)	(-289,97)	(183,32)	(-273,33)	(-64,1)	(94,24)	(1,21)	(-4,8)	(7,22)	(2,62)	(-18,4)	(0,32)	(197,23)	(5,20)	
L1D -182>	(-35,23)	(-19,25)	(163,107)	(-64,18)	(-3,13)	(1,31)	(-5,35)	(182,15)	(0,8)	(-27,1)	(2,26)	(5,21)	(7,13)	(-289,3)	(-31,8)	(-15,7)	
L1D -181>	(-5,55)	(4,1)	(1,38)	(-1,2)	(5,26)	(0,11)	(-4,4)	(-128,13)	(-64,113)	(240,2)	(181,37)	(2,35)	(7,8)	(6,7)	(-264,7)	(378,23)	
L1D -180>	(-64,1)	(7,25)	(-289,3)	(6,10)	(-5,97)	(0,39)	(2,51)	(180,38)	(65,7)	(110,8)	(1,51)	(50,8)	(224,32)	(136,22)	(-197,14)	(184,6)	
L1D -179>	(-1,65)	(-5,4)	(179,1)	(7,0)	(-9,0)	(10,0)	(0,0)	(139,0)	(-205,3)	(-4,0)	(5,0)	(2,1)	(-6,0)	(1,1)	(6,1)	(-64,0)	
L1D -178>	(-5,82)	(7,12)	(1,108)	(98,1)	(163,100)	(-291,5)	(88,27)	(-205,13)	(2,33)	(-4,5)	(6,5)	(0,26)	(178,30)	(-16,2)	(5,30)	(-71,3)	
L1D -177>	(88,87)	(176,2)	(1,27)	(0,91)	(-45,1)	(-276,1)	(-205,1)	(177,1)	(-5,6)	(-6,0)	(304,0)	(332,1)	(6,1)	(-39,0)	(-273,0)	(-1,1)	
L1D -176>	(0,126)	(65,1)	(45,4)	(53,1)	(73,1)	(-5,3)	(88,64)	(-6,1)	(112,2)	(44,2)	(169,1)	(59,1)	(-30,1)	(1,2)	(47,1)	(52,1)	
L1D -175>	(0,17)	(31,1)	(-5,26)	(1,10)	(175,8)	(-64,103)	(2,3)	(192,6)	(5,12)	(7,2)	(-47,1)	(-157,1)	(88,24)	(-168,3)	(170,9)	(6,2)	
L1D -174>	(5,22)	(1,31)	(28,21)	(168,107)	(0,40)	(87,12)	(7,1)	(-5,80)	(174,19)	(30,5)	(-279,3)	(6,4)	(50,19)	(-3,89)	(20,6)	(2,7)	
L1D -173>	(86,3)	(-1,38)	(-5,71)	(173,38)	(-4,10)	(6,10)	(1,39)	(-64,9)	(3,1)	(2,20)	(7,18)	(5,42)	(28,75)	(0,2)	(-205,2)	(21,1)	
L1D -172>	(3,2)	(2,18)	(167,10)	(-11,79)	(0,10)	(-5,70)	(-29,1)	(-64,62)	(1,46)	(172,32)	(-6,1)	(6,9)	(5,51)	(7,20)	(29,4)	(48,3)	
L1D -171>	(171,77)	(177,25)	(118,3)	(-1,2)	(90,29)	(-5,35)	(4,19)	(-4,15)	(1,28)	(5,21)	(6,20)	(7,8)	(167,1)	(172,2)	(3,1)	(2,11)	
L1D -170>	(33,65)	(170,70)	(7,13)	(0,16)	(6,76)	(-5,124)	(2,49)	(-128,1)	(1,113)	(-4,16)	(-64,4)	(-2,3)	(5,42)	(-1,9)	(-168,8)	(39,4)	
L1D -169>	(-6,4)	(-26,23)	(169,77)	(-5,103)	(0,4)	(1,87)	(-276,3)	(5,36)	(-3,1)	(-4,5)	(-2,4)	(2,18)	(-24,37)	(6,5)	(-32,14)	(-22,4)	
L1D -168>	(-19,1)	(-5,54)	(168,35)	(0,4)	(1,77)	(-3,84)	(-27,17)	(-25,3)	(-158,7)	(-33,10)	(6,6)	(343,71)	(87,5)	(-6,9)	(-4,4)	(2,9)	
L1D -167>	(-1,3)	(167,66)	(86,69)	(-4,9)	(1,116)	(-5,58)	(-305,5)	(367,1)	(0,4)	(10,1)	(-47,1)	(-162,18)	(-291,8)	(2,11)	(-18,1)	(-6,4)	
L1D -166>	(-45,3)	(-5,56)	(-1,1)	(1,82)	(-46,1)	(166,27)	(0,1)	(2,3)	(168,3)	(52,1)	(38,1)	(-4,23)	(-6,2)	(-40,1)	(6,4)	(384,1)	
L1D -165>	(-5,69)	(32,9)	(-293,1)	(1,93)	(-128,7)	(160,2)	(159,2)	(158,19)	(2,6)	(165,27)	(-7,2)	(0,1)	(3,1)	(-47,1)	(-4,6)	(-36,1)	
L1D -164>	(24,2)	(-64,1)	(-5,3)	(-6,0)	(1,5)	(2,3)	(164,2)	(10,0)	(-273,0)	(332,0)	(-9,0)	(169,1)	(153,98)	(0,0)	(165,0)	(-4,3)	
L1D -163>	(2,1)	(184,28)	(186,28)	(-64,15)	(61,19)	(64,12)	(163,112)	(150,16)	(185,16)	(190,13)	(181,5)	(182,12)	(189,30)	(183,6)	(187,57)	(0,111)	
L1D -162>	(186,20)	(191,30)	(56,26)	(190,8)	(59,11)	(189,10)	(53,1)	(185,12)	(152,18)	(188,54)	(150,4)	(192,29)	(1,115)	(332,27)	(0,26)	(187,65)	
L1D -161>	(161,1)	(-32,1)	(-10,0)	(212,0)	(162,0)	(1,64)	(478,0)	(14,0)	(-291,0)	(-27,0)	(-301,0)	(21,0)	(181,0)	(24,0)	(-14,4)	(10,1)	
L1D -160>	(-2,11)	(-11,1)	(14,2)	(32,2)	(-64,4)	(163,12)	(160,5)	(2,2)	(10,5)	(128,7)	(357,3)	(1,97)	(-91,2)	(0,8)	(27,4)	(21,5)	
L1D -159>	(-99,116)	(-98,7)	(-236,3)	(160,2)	(-33,3)	(2,2)	(1,66)	(-208,1)	(21,1)	(-64,2)	(-220,1)	(0,6)	(-3,3)	(3,3)	(9,1)	(159,2)	
L1D -158>	(332,26)	(321,2)	(-4,7)	(24,5)	(79,2)	(-46,4)	(-30,1)	(-64,2)	(157,50)	(-5,2)	(1,89)	(21,3)	(48,2)	(10,3)	(-3,3)	(0,7)	
L1D -157>	(-56,111)	(362,0)	(-64,0)	(-4,0)	(1,0)	(10,0)	(14,0)	(-84,0)	(-3,0)	(13,0)	(0,0)	(-13,0)	(157,0)	(-6,0)	(3,0)	(21,0)	
L1D -156>	(-128,4)	(102,2)	(-14,15)	(9,6)	(-1,5)	(-32,3)	(0,7)	(-288,3)	(7,2)	(1,123)	(10,53)	(163,1)	(128,6)	(-64,52)	(-310,1)	(156,8)	
L1D -155>	(1,7)	(157,13)	(156,26)	(-7,4)	(-128,5)	(9,16)	(7,6)	(154,125)	(-64,10)	(5,47)	(-14,26)	(155,7)	(-212,2)	(142,3)	(10,65)	(-3,4)	
L1D -154>	(-14,81)	(154,6)	(156,32)	(137,2)	(-25,8)	(24,5)	(0,1)	(135,1)	(-3,1)	(62,1)	(29,1)	(-15,0)	(7,1)	(38,0)	(10,13)	(133,1)	
L1D -153>	(187,10)	(-158,3)	(153,19)	(-130,9)	(163,121)	(154,17)	(10,104)	(-139,43)	(0,11)	(7,11)	(14,7)	(18,1)	(155,13)	(132,3)	(24,19)	(156,11)	
L1D -152>	(23,14)	(10,52)	(39,3)	(38,4)	(25,44)	(-237,4)	(14,1)	(27,9)	(40,9)	(37,13)	(41,12)	(24,95)	(-3,43)	(21,98)	(26,16)	(140,61)	
L1D -151>	(0,31)	(-1,8)	(-309,9)	(148,11)	(-8,30)	(-238,1)	(153,67)	(-19,22)	(149,4)	(4,108)	(-11,15)	(2,59)	(151,11)	(-132,3)	(24,87)	(-18,4)	
L1D -150>	(-38,3)	(4,57)	(0,53)	(-6,80)	(5,39)	(332,9)	(-1,39)	(16,36)	(-8,16)	(7,72)	(324,10)	(13,50)	(150,13)	(2,19)	(3,60)	(-2,33)	
L1D -149>	(0,114)	(151,9)	(136,13)	(13,1)	(7,96)	(1,44)	(8,42)	(-19,44)	(-50,9)	(2,23)	(-3,19)	(6,24)	(4,11)	(3,94)	(-309,28)	(128,18)	
L1D -148>	(-128,114)	(-19,28)	(0,58)	(14,12)	(148,23)	(-139,24)	(2,11)	(-20,19)	(1,56)	(-15,13)	(7,51)	(3,23)	(-1,8)	(4,12)	(-10,17)	(133,1)	
L1D -147>	(24,5)	(141,72)	(2,4)	(-64,4)	(-128,5)	(1,5)	(-19,13)	(29,1)	(-8,4)	(7,9)	(-2,4)	(-33,18)	(8,2)	(-20,7)	(132,11)	(0,13)	
L1D -146>	(0,81)	(-8,1)	(156,1)	(14,1)	(9,31)	(2,14)	(-120,1)	(-64,5)	(11,2)	(-20,2)	(7,2)	(-33,4)	(-19,4)	(-3,8)	(1,8)	(-15,1)	
L1D -145>	(-14,1)	(4,5)	(0,52)	(12,25)	(8,24)	(-2,6)	(-1,5)	(-13,10)	(-20,57)	(-25,14)	(-26,4)	(1,64)	(48,7)	(-19,88)	(-16,32)	(2,35)	
L1D -144>	(130,76)	(7,14)	(-26,3)	(128,1)	(-64,2)	(0,14)	(145,0)	(-258,2)	(-9,2)	(67,1)	(380,0)	(9,0)	(-19,1)	(-20,1)	(-128,0)	(15,0)	
L1D -143>	(6,69)	(0,51)	(8,20)	(24,1)	(23,0)	(-19,1)	(-15,1)	(-1,2)	(143,0)	(-82,1)	(129,2)	(-9,0)	(-20,1)	(3,17)	(135,0)	(167,0)	
L1D -142>	(8,11)	(64,16)	(0,122)	(-2,2)	(-64,21)	(1,13)	(-20,81)	(-15,23)	(-16,37)	(-14,4)	(140,4)	(-19,82)	(-1,9)	(-179,11)	(-63,5)	(6,3)	
L1D -141>	(21,68)	(42,41)	(39,30)	(23,11)	(43,11)	(41,49)	(27,20)	(132,2)	(6,50)	(25,87)	(26,50)	(37,44)	(40,50)	(28,7)	(38,60)	(24,40)	
L1D -140>	(4,26)	(-10,1)	(-1,11)	(53,8)	(-16,31)	(0,84)	(-19,63)	(64,11)	(-20,54)	(11,21)	(12,18)	(2,39)	(8,35)	(1,15)	(140,9)	(-64,16)	
L1D -139>	(-64,5)	(357,1)	(2,9)	(-19,21)	(134,3)	(8,2)	(-1,53)	(-4,2)	(135,4)	(-15,3)	(11,11)	(-20,54)	(0,9)	(-128,18)	(-5,93)	(4,9)	
L1D -138>	(-14,35)	(-327,27)	(337,1)	(15,12)	(-9,7)	(-16,32)	(-27,8)	(2,51)	(-59,7)	(13,12)	(-19,119)	(-20,71)	(-4,7)	(134,18)	(1,21)	(137,37)	
L1D -137>	(-20,8)	(138,4)	(137,4)	(0,18)	(-128,11)	(200,1)	(2,8)	(-16,1)	(-19,15)	(-2,5)	(-7,75)	(136,18)	(-33,15)	(-3,1)	(-5,1)	(133,5)	
L1D -136>	(0,27)	(-20,25)	(144,12)	(-44,3)	(136,13)	(-4,47)	(-19,17)	(134,5)	(-7,12)	(-14,104)	(-5,1)	(-16,5)	(138,35)	(16,13)	(13,1)	(15,1)	
L1D -135>	(-16,1)	(137,2)	(-69,0)	(-8,64)	(-7,0)	(-14,0)	(-3,0)	(133,0)	(-19,1)	(0,4)	(2,0)	(15,1)	(-20,6)	(-1,1)	(8,0)	(135,1)	
L1D -134>	(-3,18)	(2,20)	(14,122)	(8,24)	(13,39)	(50,1)	(-65,4)	(71,2)	(-16,21)	(134,31)	(0,8)	(133,17)	(-27,2)	(-19,45)	(-20,72)	(1,15)	
L1D -133>	(2,24)	(121,1)	(132,126)	(-1,2)	(130,99)	(14,3)	(1,6)	(0,16)	(-40,1)	(-11,5)	(9,3)	(6,2)	(-20,7)	(-19,3)	(13,5)	(133,12)	
L1D -132>	(-59,2)	(-38,1)	(6,13)	(8,1)	(132,66)	(0,4)	(122,2)	(130,13)	(-283,1)	(2,1)	(-2,1)	(-20,19)	(179,3)	(-16,4)	(-19,29)	(-7,3)	
L1D -131>	(6,3)	(-10,8)	(-8,20)	(-5,8)	(251,4)	(-15,49)	(1,12)	(-27,3)	(148,2)	(-22,5)	(-128,6)	(-16,33)	(0,4)	(136,29)	(-6,4)	(-20,121)	
L1D -130>	(132,16)	(130,10)	(-10,64)	(1,10)	(21,7)	(-19,3)	(-128,35)	(2,3)	(-63,9)	(-20,100)	(-16,29)	(122,1)	(-12,17)	(333,2)	(81,6)	(-14,94)	
L1D -129>	(0,7)	(125,1)	(-16,4)	(72,1)	(-1,3)	(135,0)	(86,1)	(14,0)	(7,0)	(129,82)	(69,1)	(-9,0)	(27,1)	(-47,1)	(97,1)	(-8,0)	
L1D -128>	(7,23)	(331,2)	(0,21)	(6,86)	(1,42)	(8,18)	(13,3)	(258,14)	(128,34)	(276,7)	(-175,8)	(-14,1)	(-16,3)	(15,30)	(9,3)	(267,34)	
L1D -127>	(-81,1)	(2,1)	(126,1)	(-176,0)	(0,0)	(1,74)	(127,0)	(34,20)	(3,0)	(-177,0)	(315,0)	(8,0)	(87,0)	(-271,0)	(-41,0)	(128,0)	
L1D -126>	(-272,4)	(9,1)	(-184,1)	(-27,33)	(-2,1)	(6,8)	(83,2)	(-9,1)	(-8,6)	(-42,1)	(128,1)	(1,102)	(126,2)	(-60,0)	(179,2)	(-179,1)	
L1D -125>	(0,52)	(129,101)	(-8,58)	(-14,8)	(-1,20)	(125,77)	(-273,34)	(8,7)	(213,12)	(-43,5)	(205,8)	(-9,1)	(-193,5)	(-7,5)	(-64,9)	(1,89)	
L1D -124>	(-9,7)	(-148,4)	(137,2)	(124,12)	(21,27)	(64,2)	(-156,10)	(8,122)	(1,39)	(-186,1)	(-274,7)	(140,8)	(-172,1)	(-267,2)	(-8,7)	(-16,3)	
L1D -123>	(123,53)	(2,5)	(105,88)	(150,1)	(-43,4)	(-72,12)	(-38,2)	(-8,16)	(1,17)	(-70,33)	(-7,107)	(125,26)	(-5,10)	(64,16)	(0,14)	(-71,6)	
L1D -122>	(2,3)	(130,23)	(64,89)	(117,30)	(0,1)	(111,18)	(4,13)	(1,2)	(3,3)	(8,7)	(110,1)	(-191,1)	(132,4)	(122,2)	(21,0)	(-277,0)	
L1D -121>	(-6,6)	(-160,1)	(136,2)	(-7,70)	(-5,121)	(-17,3)	(-37,1)	(132,2)	(-2,1)	(0,1)	(130,1)	(-1,1)	(64,4)	(-4,0)	(8,0)	(121,0)	
L1D -120>	(0,43)	(-14,89)	(64,19)	(-18,2)	(2,14)	(-24,18)	(-23,19)	(109,7)	(103,20)	(4,9)	(6,6)	(-4,3)	(3,8)	(-8,12)	(-16,85)	(1,24)	
L1D -119>	(130,3)	(-8,13)	(1,18)	(120,3)	(240,1)	(-4,29)	(64,2)	(-18,73)	(5,12)	(0,27)	(4,10)	(6,2)	(8,4)	(2,17)	(-1,9)	(3,10)	
L1D -118>	(109,77)	(18,28)	(-256,1)	(-18,1)	(-9,0)	(-192,0)	(103,0)	(-7,0)	(-1,0)	(9,0)	(14,0)	(104,0)	(0,0)	(7,0)	(122,0)	(120,0)	
L1D -117>	(130,38)	(71,55)	(82,55)	(-1,41)	(8,18)	(-9,21)	(-5,70)	(1,17)	(-8,8)	(14,1)	(18,6)	(77,4)	(117,16)	(-3,13)	(0,29)	(85,6)	
L1D -116>	(-8,74)	(-1,55)	(130,11)	(-10,5)	(-14,1)	(-197,32)	(81,47)	(2,3)	(-4,4)	(-7,34)	(0,28)	(-9,3)	(-44,7)	(-3,4)	(8,3)	(7,6)	
L1D -115>	(13,70)	(15,1)	(-5,32)	(80,30)	(69,14)	(-1,22)	(98,10)	(-65,2)	(110,2)	(0,14)	(115,6)	(-283,6)	(-4,2)	(7,7)	(8,5)	(-16,4)	
L1D -114>	(-1,100)	(-66,1)	(8,5)	(132,2)	(1,22)	(64,1)	(-30,1)	(-140,2)	(0,2)	(-32,6)	(114,4)	(24,1)	(-39,2)	(-7,7)	(7,2)	(-190,1)	
L1D -113>	(1,4)	(67,4)	(0,3)	(64,93)	(-9,14)	(-7,2)	(78,3)	(-107,1)	(8,3)	(-16,1)	(113,3)	(-33,1)	(2,2)	(-74,1)	(-1,7)	(47,1)	
L1D -112>	(0,22)	(9,8)	(-1,35)	(117,12)	(-4,20)	(66,1)	(-34,31)	(112,17)	(-9,16)	(68,4)	(1,6)	(-5,22)	(64,81)	(12,26)	(-8,18)	(176,17)	
L1D -111>	(102,8)	(-6,13)	(93,76)	(-1,110)	(45,41)	(62,1)	(0,28)	(64,51)	(6,10)	(8,54)	(-35,26)	(100,9)	(111,29)	(9,36)	(-5,8)	(-8,74)	
L1D -110>	(-10,14)	(120,108)	(-1,19)	(8,10)	(33,36)	(0,50)	(32,5)	(-6,6)	(-8,17)	(110,10)	(-288,4)	(1,3)	(-18,5)	(-40,2)	(478,1)	(9,5)	
L1D -109>	(266,106)	(108,0)	(-5,0)	(43,0)	(20,0)	(9,0)	(-48,0)	(23,2)	(18,2)	(-32,0)	(128,0)	(10,0)	(-24,0)	(1,0)	(1,0)	(1,0)	
L1D -108>	(-81,1)	(-12,10)	(-54,59)	(97,7)	(1,14)	(107,3)	(-7,2)	(-2,33)	(-10,50)	(-1,2)	(-6,10)	(0,50)	(40,1)	(78,108)	(108,4)	(110,32)	
L1D -107>	(16,6)	(109,68)	(-16,1)	(108,4)	(5,8)	(7,53)	(17,1)	(27,1)	(21,8)	(-106,1)	(31,0)	(8,18)	(107,1)	(42,2)	(98,0)	(-5,1)	
L1D -106>	(-138,1)	(20,1)	(-4,1)	(106,1)	(40,11)	(1,1)	(2,2)	(9,1)	(13,127)	(15,43)	(0,1)	(-41,0)	(8,0)	(-26,0)	(105,2)	(-5,0)	
L1D -105>	(-38,19)	(0,33)	(86,11)	(2,1)	(-4,33)	(-36,2)	(-328,116)	(-1,48)	(13,8)	(109,1)	(39,3)	(20,1)	(11,1)	(12,5)	(129,2)	(4,4)	
L1D -104>	(50,1)	(79,0)	(5,75)	(200,0)	(18,67)	(2,0)	(130,0)	(38,14)	(-2,7)	(184,4)	(64,0)	(3,0)	(1,1)	(4,3)	(193,0)	(-24,0)	
L1D -103>	(60,89)	(22,103)	(18,84)	(3,2)	(-2,18)	(12,114)	(-1,34)	(0,7)	(2,17)	(17,43)	(10,5)	(11,5)	(1,28)	(129,1)	(4,52)	(38,5)	
L1D -102>	(6,4)	(-7,6)	(104,31)	(4,3)	(-2,2)	(129,3)	(12,4)	(11,10)	(102,1)	(-16,1)	(30,42)	(101,1)	(-5,81)	(-1,1)	(0,9)	(8,1)	
L1D -101>	(0,7)	(-1,54)	(41,92)	(-42,17)	(190,81)	(-18,1)	(102,8)	(189,1)	(-6,2)	(-16,1)	(103,1)	(39,1)	(-8,1)	(64,1)	(2,44)	(101,1)	
L1D -100>	(17,4)	(38,10)	(-68,2)	(-15,1)	(28,75)	(34,6)	(-7,9)	(35,10)	(192,1)	(7,15)	(100,15)	(2,8)	(-21,1)	(-3,15)	(-6,8)	(91,7)	
L1D -99>	(98,13)	(0,62)	(71,2)	(28,21)	(62,101)	(24,26)	(99,26)	(87,4)	(60,10)	(-4,28)	(78,16)	(-128,1)	(89,8)	(38,14)	(101,14)	(61,4)	
L1D -98>	(98,52)	(-1,13)	(0,58)	(60,62)	(128,2)	(78,38)	(8,3)	(-58,7)	(97,6)	(28,5)	(99,4)	(-104,10)	(29,2)	(7,57)	(107,96)	(2,2)	
L1D -97>	(-6,3)	(98,33)	(-112,1)	(41,74)	(2,74)	(97,5)	(0,1)	(-118,1)	(-34,1)	(129,2)	(-91,1)	(64,3)	(88,2)	(-1,2)	(29,15)	(35,1)	
L1D -96>	(-9,78)	(-58,56)	(222,8)	(-248,5)	(64,14)	(0,40)	(32,4)	(1,3)	(88,7)	(7,12)	(107,18)	(18,4)	(-104,1)	(100,4)	(-100,2)	(96,12)	
L1D -95>	(2,89)	(-14,11)	(1,65)	(95,2)	(64,22)	(224,3)	(-11,3)	(27,3)	(0,8)	(6,1)	(7,1)	(4,3)	(299,11)	(-9,1)	(-1,5)	(-13,1)	
L1D -94>	(100,1)	(-6,1)	(-32,3)	(-110,1)	(9,1)	(29,1)	(0,1)	(-184,1)	(64,1)	(-62,1)	(-34,30)	(-33,65)	(94,1)	(-101,0)	(-264,0)	(4,3)	
L1D -93>	(91,1)	(-10,20)	(109,1)	(-1,13)	(-8,26)	(45,46)	(114,1)	(66,1)	(-72,1)	(0,10)	(92,1)	(27,46)	(2,80)	(107,0)	(-138,0)	(-275,0)	
L1D -92>	(27,59)	(97,9)	(75,8)	(0,17)	(223,14)	(-9,63)	(4,12)	(-245,1)	(253,8)	(-1,7)	(64,66)	(1,7)	(129,6)	(212,5)	(-128,20)	(-41,3)	
L1D -91>	(-192,0)	(91,117)	(56,0)	(96,0)	(5,12)	(100,0)	(-16,3)	(93,0)	(-12,8)	(4,0)	(175,0)	(1,0)	(64,0)	(-18,0)	(89,0)	(7,0)	
L1D -90>	(90,14)	(96,1)	(94,0)	(129,0)	(14,0)	(-1,15)	(91,120)	(-8,30)	(18,0)	(-34,20)	(81,3)	(26,1)	(1,26)	(15,5)	(88,3)	(0,1)	
L1D -89>	(126,1)	(1,98)	(98,1)	(0,68)	(91,4)	(-1,1)	(-6,0)	(-48,0)	(-137,0)	(6,34)	(-16,1)	(80,0)	(182,0)	(-34,20)	(-32,0)	(88,42)	
L1D -88>	(0,90)	(-76,0)	(8,4)	(6,2)	(90,2)	(-89,0)	(64,13)	(-1,0)	(1,19)	(-25,0)	(-265,0)	(88,36)	(26,0)	(4,0)	(-11,1)	(176,0)	
L1D -87>	(0,61)	(1,22)	(98,77)	(224,5)	(64,1)	(-36,1)	(-17,4)	(87,67)	(8,4)	(-1,1)	(-86,1)	(89,8)	(88,12)	(-20,1)	(-13,14)	(9,2)	
L1D -86>	(-18,90)	(86,1)	(4,0)	(-16,3)	(-4,0)	(88,0)	(-84,0)	(8,0)	(-20,3)	(0,0)	(110,0)	(399,0)	(87,0)	(225,0)	(-1,0)	(276,0)	
L1D -85>	(92,3)	(-18,3)	(5,3)	(69,1)	(72,2)	(4,6)	(86,1)	(-8,40)	(7,1)	(107,4)	(1,7)	(82,1)	(-23,114)	(64,7)	(0,3)	(-13,5)	
L1D -84>	(224,27)	(-14,102)	(81,8)	(-229,3)	(225,60)	(20,1)	(267,2)	(214,3)	(1,8)	(-59,4)	(85,5)	(197,67)	(226,4)	(0,9)	(64,13)	(4,4)	
L1D -83>	(64,18)	(4,3)	(47,2)	(3,7)	(-9,116)	(-16,5)	(0,11)	(283,2)	(-40,2)	(-5,26)	(108,10)	(226,3)	(163,2)	(1,3)	(8,3)	(196,18)	
L1D -82>	(-102,93)	(117,111)	(64,41)	(24,2)	(0,3)	(-115,12)	(25,4)	(71,4)	(-5,5)	(81,9)	(-23,4)	(192,1)	(83,4)	(46,1)	(26,1)	(-107,15)	
L1D -81>	(116,11)	(72,43)	(1,7)	(-7,4)	(81,5)	(27,1)	(82,0)	(0,0)	(64,0)	(86,0)	(-21,0)	(7,0)	(-23,0)	(-3,0)	(-1,0)	(5,101)	
L1D -80>	(115,71)	(-58,22)	(15,2)	(80,2)	(64,101)	(63,2)	(18,3)	(0,42)	(2,1)	(48,1)	(1,2)	(-27,2)	(129,2)	(173,1)	(16,12)	(192,1)	
L1D -79>	(81,1)	(80,1)	(132,1)	(161,1)	(64,46)	(0,1)	(61,1)	(4,0)	(-16,0)	(316,0)	(1,3)	(-184,1)	(-3,1)	(79,91)	(75,3)	(42,0)	
L1D -78>	(60,113)	(192,4)	(0,118)	(-36,32)	(87,12)	(98,19)	(2,1)	(-58,11)	(99,8)	(89,3)	(86,1)	(129,4)	(113,15)	(80,1)	(-3,1)	(-1,9)	
L1D -77>	(-118,3)	(-38,2)	(-72,1)	(40,12)	(-1,105)	(-3,56)	(77,39)	(0,10)	(64,10)	(13,2)	(-37,7)	(85,1)	(-116,3)	(-58,1)	(3,1)	(1,23)	
L1D -76>	(64,27)	(130,4)	(1,36)	(0,99)	(129,32)	(75,60)	(2,12)	(-2,43)	(76,33)	(-3,1)	(-5,4)	(-1,9)	(-36,33)	(80,5)	(84,2)	(67,3)	
L1D -75>	(64,13)	(24,4)	(1,21)	(88,1)	(71,2)	(129,79)	(76,28)	(75,13)	(18,4)	(-1,15)	(0,49)	(12,2)	(-6,4)	(-4,3)	(-128,3)	(83,2)	
L1D -74>	(74,13)	(0,88)	(13,5)	(-45,5)	(129,93)	(17,24)	(-18,102)	(-8,1)	(70,3)	(73,5)	(4,6)	(-1,22)	(1,70)	(64,6)	(139,4)	(30,2)	
L1D -73>	(64,76)	(0,69)	(111,21)	(192,2)	(75,3)	(80,1)	(1,6)	(130,12)	(185,3)	(-66,2)	(129,14)	(-36,2)	(-1,9)	(73,3)	(86,1)	(13,2)	
L1D -72>	(-21,1)	(0,3)	(15,1)	(1,1)	(143,0)	(2,2)	(-28,1)	(64,80)	(72,1)	(-1,8)	(24,0)	(-35,0)	(57,0)	(129,1)	(-4,1)	(56,0)	
L1D -71>	(-1,16)	(64,16)	(29,10)	(1,72)	(130,69)	(70,23)	(71,4)	(-8,9)	(0,22)	(-10,4)	(24,4)	(-7,10)	(129,56)	(-21,20)	(159,1)	(81,4)	
L1D -70>	(1,10)	(30,8)	(86,1)	(-192,0)	(-2,1)	(121,0)	(129,70)	(0,14)	(-1,10)	(79,0)	(199,0)	(-85,4)	(92,2)	(64,1)	(70,1)	(132,1)	
L1D -69>	(18,32)	(109,89)	(44,1)	(161,1)	(2,1)	(0,0)	(64,0)	(69,1)	(22,6)	(204,0)	(-85,1)	(10,1)	(-25,0)	(192,0)	(70,0)	(40,0)	
L1D -68>	(-160,1)	(66,3)	(143,4)	(64,22)	(1,36)	(42,5)	(-18,5)	(-257,4)	(-8,52)	(20,22)	(-13,6)	(22,18)	(69,108)	(0,64)	(37,33)	(19,5)	
L1D -67>	(1,80)	(37,4)	(2,52)	(20,1)	(67,27)	(0,97)	(19,2)	(64,25)	(3,6)	(61,17)	(49,9)	(-15,14)	(-14,108)	(-289,7)	(66,3)	(8,4)	
L1D -66>	(66,6)	(-36,32)	(-25,79)	(64,11)	(1,6)	(-45,73)	(72,20)	(188,2)	(-43,2)	(-34,38)	(67,3)	(65,14)	(125,2)	(0,6)	(73,70)	(2,1)	
L1D -65>	(74,2)	(64,13)	(-17,2)	(0,5)	(-13,1)	(-22,77)	(56,1)	(-35,78)	(68,1)	(-198,1)	(2,6)	(-30,9)	(153,2)	(-44,4)	(202,1)	(-75,2)	
L1D -64>	(74,12)	(67,30)	(68,8)	(-137,5)	(72,36)	(64,66)	(73,3)	(296,8)	(-64,45)	(-391,1)	(256,9)	(75,52)	(280,13)	(112,5)	(0,23)	(272,11)	
L1D -63>	(71,2)	(191,55)	(5,4)	(76,2)	(103,1)	(64,54)	(9,13)	(55,5)	(-5,1)	(166,2)	(63,30)	(2,5)	(12,49)	(1,94)	(-9,2)	(-12,6)	
L1D -62>	(20,4)	(11,6)	(-5,2)	(51,48)	(62,125)	(29,3)	(52,18)	(22,1)	(-31,4)	(63,2)	(-36,1)	(-70,6)	(-3,2)	(64,6)	(1,4)	(0,4)	
L1D -61>	(3,12)	(1,21)	(5,1)	(58,81)	(99,1)	(-276,6)	(-108,1)	(12,10)	(38,0)	(21,0)	(26,0)	(18,0)	(192,2)	(61,2)	(60,0)	(68,0)	
L1D -60>	(60,67)	(-1,11)	(62,5)	(99,29)	(0,18)	(20,2)	(-277,5)	(2,1)	(204,1)	(64,13)	(12,2)	(1,1)	(-4,1)	(104,0)	(151,0)	(63,4)	
L1D -59>	(48,41)	(-34,13)	(65,54)	(1,51)	(64,109)	(147,1)	(37,10)	(56,5)	(112,120)	(-10,11)	(-13,105)	(-41,9)	(172,13)	(0,31)	(140,4)	(59,37)	
L1D -58>	(48,3)	(0,14)	(2,127)	(-1,10)	(64,99)	(58,20)	(47,11)	(-16,2)	(4,3)	(-5,1)	(-4,2)	(12,12)	(-14,69)	(1,89)	(56,7)	(-71,15)	
L1D -57>	(5,1)	(47,24)	(57,66)	(-72,15)	(64,16)	(58,2)	(14,0)	(-1,2)	(2,3)	(-2,4)	(-83,1)	(55,13)	(-73,2)	(7,0)	(0,17)	(1,4)	
L1D -56>	(2,66)	(48,0)	(55,0)	(32,0)	(1,0)	(68,0)	(69,0)	(66,0)	(67,0)	(34,0)	(58,0)	(112,0)	(0,0)	(42,0)	(43,0)	(-1,2)	
L1D -55>	(1,56)	(55,126)	(-1,68)	(15,30)	(45,50)	(-4,27)	(32,51)	(40,65)	(-74,123)	(64,57)	(37,6)	(53,18)	(266,25)	(54,21)	(0,1)	(42,18)	
L1D -54>	(41,8)	(-27,45)	(39,20)	(-1,101)	(31,32)	(-5,6)	(42,7)	(-52,4)	(56,106)	(54,81)	(-9,3)	(43,1)	(1,60)	(0,5)	(-75,33)	(44,4)	
L1D -53>	(-36,8)	(54,17)	(20,34)	(43,3)	(1,7)	(53,57)	(64,119)	(51,5)	(11,6)	(227,5)	(42,10)	(62,13)	(358,50)	(-76,8)	(2,1)	(-6,7)	
L1D -52>	(1,93)	(0,0)	(5,0)	(41,0)	(43,0)	(49,0)	(-7,7)	(62,0)	(54,0)	(-36,0)	(12,2)	(29,1)	(42,0)	(-15,0)	(-39,0)	(-9,0)	
L1D -51>	(-28,1)	(39,1)	(42,2)	(64,6)	(41,2)	(28,8)	(3,0)	(40,0)	(49,3)	(0,1)	(36,2)	(-8,110)	(51,4)	(-1,32)	(1,5)	(11,1)	
L1D -50>	(64,5)	(1,96)	(2,86)	(-9,7)	(-3,3)	(27,6)	(6,1)	(4,6)	(97,1)	(324,1)	(39,1)	(35,6)	(3,1)	(0,1)	(60,1)	(18,1)	
L1D -49>	(2,10)	(-20,2)	(-10,86)	(-3,4)	(30,2)	(41,1)	(50,1)	(15,19)	(98,1)	(0,13)	(47,4)	(64,14)	(6,5)	(-5,30)	(39,2)	(1,8)	
L1D -48>	(4,4)	(63,6)	(25,2)	(112,16)	(58,10)	(40,4)	(2,35)	(3,8)	(59,4)	(48,3)	(0,75)	(-31,22)	(1,7)	(-11,13)	(60,1)	(-1,123)	
L1D -47>	(32,2)	(39,8)	(47,113)	(57,57)	(4,26)	(12,19)	(0,28)	(1,112)	(69,16)	(-108,35)	(26,23)	(64,7)	(-12,5)	(9,6)	(35,8)	(2,23)	
L1D -46>	(32,1)	(1,115)	(48,9)	(12,1)	(31,0)	(43,0)	(47,110)	(23,0)	(-71,0)	(7,1)	(-4,5)	(45,13)	(44,10)	(56,1)	(93,3)	(-13,0)	
L1D -45>	(-31,1)	(1,33)	(7,2)	(-34,5)	(-41,2)	(-43,22)	(44,4)	(45,109)	(19,1)	(63,3)	(43,6)	(62,8)	(72,1)	(166,2)	(93,19)	(55,12)	
L1D -44>	(1,59)	(-15,19)	(5,17)	(64,14)	(54,10)	(4,1)	(0,11)	(43,17)	(44,20)	(22,8)	(45,11)	(35,4)	(46,74)	(42,19)	(33,15)	(41,2)	
L1D -43>	(47,64)	(9,40)	(109,7)	(1,12)	(-12,1)	(41,8)	(43,74)	(-284,3)	(44,4)	(45,44)	(64,30)	(-16,99)	(33,7)	(53,8)	(7,115)	(-7,25)	
L1D -42>	(42,116)	(-256,1)	(52,17)	(2,16)	(53,6)	(0,3)	(23,5)	(1,15)	(41,12)	(-75,5)	(35,1)	(44,21)	(64,4)	(21,2)	(6,14)	(33,14)	
L1D -41>	(41,74)	(51,5)	(94,2)	(42,5)	(-1,6)	(52,2)	(200,1)	(40,27)	(10,2)	(0,11)	(1,18)	(-18,1)	(43,71)	(64,9)	(9,3)	(-4,1)	
L1D -40>	(0,65)	(-7,1)	(1,62)	(40,87)	(-13,5)	(47,3)	(112,56)	(29,3)	(39,69)	(50,5)	(-16,79)	(52,83)	(-40,2)	(-1,5)	(64,8)	(17,2)	
L1D -39>	(38,22)	(126,9)	(39,74)	(47,6)	(49,31)	(50,26)	(64,14)	(34,26)	(0,29)	(6,11)	(4,1)	(29,10)	(1,42)	(-20,123)	(37,6)	(-6,4)	
L1D -38>	(1,12)	(55,43)	(-2,1)	(44,15)	(10,105)	(50,14)	(34,51)	(36,63)	(-21,26)	(2,12)	(0,13)	(49,3)	(38,63)	(37,28)	(3,7)	(48,2)	
L1D -37>	(66,1)	(64,1)	(37,8)	(0,2)	(27,5)	(34,9)	(3,7)	(38,1)	(36,19)	(196,3)	(35,4)	(16,7)	(2,3)	(-1,29)	(1,4)	(-22,81)	
L1D -36>	(44,21)	(25,38)	(36,42)	(1,5)	(-1,35)	(2,64)	(-6,5)	(38,27)	(11,112)	(33,4)	(37,5)	(64,11)	(-4,36)	(41,1)	(102,92)	(15,5)	
L1D -35>	(-82,33)	(48,1)	(34,8)	(-3,70)	(35,87)	(-81,15)	(14,48)	(1,36)	(24,5)	(100,7)	(0,6)	(-78,9)	(-80,26)	(21,40)	(9,8)	(2,3)	
L1D -34>	(38,110)	(0,11)	(34,9)	(33,1)	(14,1)	(2,2)	(4,1)	(40,0)	(-11,7)	(1,13)	(12,0)	(32,0)	(36,0)	(-14,0)	(-5,0)	(-25,8)	
L1D -33>	(33,33)	(1,69)	(10,6)	(15,2)	(180,4)	(55,1)	(-3,2)	(22,3)	(44,1)	(0,6)	(11,1)	(43,3)	(19,6)	(28,1)	(2,2)	(-248,1)	
L1D -32>	(4,40)	(1,84)	(-141,44)	(0,74)	(33,42)	(-14,25)	(8,67)	(-2,27)	(7,1)	(32,78)	(30,12)	(34,7)	(-27,77)	(31,71)	(3,18)	(43,14)	
L1D -31>	(1,39)	(4,33)	(-70,14)	(40,1)	(32,16)	(31,19)	(64,20)	(27,7)	(0,20)	(11,18)	(-4,6)	(7,74)	(59,38)	(30,40)	(-14,16)	(-28,35)	
L1D -30>	(30,17)	(14,11)	(0,28)	(1,44)	(52,3)	(8,77)	(11,6)	(7,1)	(-23,7)	(6,13)	(25,2)	(-5,19)	(16,10)	(3,15)	(-14,25)	(2,47)	
L1D -29>	(29,72)	(1,62)	(18,20)	(0,45)	(28,6)	(9,34)	(60,8)	(26,30)	(3,28)	(-30,11)	(6,10)	(-1,11)	(23,1)	(35,19)	(43,20)	(39,8)	
L1D -28>	(1,90)	(2,65)	(-14,17)	(59,21)	(0,75)	(-31,83)	(-320,74)	(28,57)	(12,107)	(-70,20)	(-5,1)	(-319,51)	(18,18)	(10,31)	(-2,3)	(-4,18)	
L1D -27>	(0,1)	(-8,0)	(42,0)	(-25,1)	(1,7)	(27,87)	(10,0)	(4,3)	(59,0)	(5,2)	(13,4)	(12,1)	(-33,0)	(37,0)	(-256,1)	(200,0)	
L1D -26>	(14,1)	(5,4)	(1,81)	(26,16)	(19,11)	(33,18)	(64,3)	(2,1)	(0,29)	(27,6)	(-1,9)	(-162,4)	(34,18)	(180,2)	(25,4)	(35,6)	
L1D -25>	(-12,60)	(0,21)	(6,13)	(7,1)	(-162,48)	(24,10)	(25,62)	(59,60)	(22,60)	(-16,40)	(1,81)	(-163,24)	(31,40)	(-70,126)	(91,7)	(41,11)	
L1D -24>	(24,75)	(11,2)	(12,105)	(4,14)	(1,33)	(13,63)	(-20,6)	(-31,9)	(-11,15)	(0,26)	(-23,10)	(7,54)	(5,8)	(2,9)	(25,8)	(6,29)	
L1D -23>	(3,8)	(1,72)	(26,8)	(11,6)	(23,26)	(35,7)	(-7,8)	(-5,2)	(0,31)	(2,13)	(118,18)	(-14,1)	(24,13)	(16,4)	(22,27)	(29,3)	
L1D -22>	(1,82)	(-13,49)	(-70,35)	(21,8)	(0,36)	(36,16)	(250,6)	(11,6)	(24,1)	(13,5)	(22,37)	(-2,3)	(8,4)	(59,18)	(9,2)	(2,5)	
L1D -21>	(21,115)	(-78,1)	(13,43)	(16,46)	(2,108)	(7,20)	(-4,17)	(93,5)	(-5,4)	(-10,81)	(4,42)	(-1,59)	(3,64)	(11,12)	(22,24)	(1,66)	
L1D -20>	(-33,1)	(6,2)	(26,2)	(20,11)	(1,13)	(4,2)	(11,2)	(13,96)	(24,0)	(19,1)	(23,0)	(0,10)	(2,0)	(-1,8)	(3,0)	(15,7)	
L1D -19>	(18,17)	(-7,14)	(13,4)	(159,2)	(11,6)	(91,2)	(-264,1)	(1,88)	(0,10)	(157,1)	(-1,26)	(19,18)	(6,3)	(-24,7)	(155,1)	(2,17)	
L1D -18>	(18,95)	(10,1)	(-3,5)	(12,5)	(11,4)	(28,1)	(17,2)	(-2,34)	(104,10)	(4,5)	(20,4)	(1,5)	(0,6)	(2,3)	(9,17)	(6,9)	
L1D -17>	(0,90)	(18,1)	(11,1)	(-2,6)	(16,0)	(1,0)	(17,2)	(-8,0)	(30,1)	(6,0)	(-27,1)	(-1,0)	(13,0)	(-16,0)	(41,0)	(-9,0)	
L1D -16>	(42,12)	(21,1)	(59,45)	(6,14)	(1,8)	(144,14)	(-5,27)	(16,115)	(-70,7)	(5,17)	(107,8)	(10,10)	(-2,69)	(-1,17)	(20,13)	(0,22)	
L1D -15>	(-18,17)	(0,97)	(24,5)	(1,29)	(-5,41)	(17,4)	(15,20)	(22,11)	(-11,24)	(18,7)	(12,6)	(31,4)	(11,1)	(10,4)	(-6,22)	(156,2)	
L1D -14>	(0,71)	(2,74)	(-14,1)	(14,7)	(3,3)	(15,2)	(6,14)	(74,12)	(1,14)	(8,2)	(10,9)	(4,5)	(22,1)	(9,2)	(173,1)	(16,1)	
L1D -13>	(4,15)	(-13,7)	(14,7)	(13,45)	(-3,7)	(17,43)	(5,103)	(6,19)	(10,7)	(1,17)	(7,15)	(-139,1)	(0,50)	(8,3)	(165,15)	(-5,15)	
L1D -12>	(23,2)	(6,14)	(103,8)	(7,2)	(12,28)	(99,8)	(10,1)	(2,68)	(-13,25)	(4,26)	(1,46)	(0,22)	(3,21)	(-2,18)	(-81,1)	(38,1)	
L1D -11>	(11,106)	(171,2)	(153,2)	(-15,4)	(-1,2)	(1,4)	(5,3)	(0,8)	(-46,33)	(-9,15)	(238,2)	(-7,3)	(9,15)	(3,2)	(-107,4)	(2,18)	
L1D -10>	(117,1)	(1,17)	(7,13)	(12,3)	(-122,6)	(4,13)	(2,71)	(6,5)	(5,4)	(8,17)	(23,8)	(-1,6)	(9,31)	(0,30)	(10,86)	(-2,12)	
L1D -9>	(1,22)	(2,40)	(-1,71)	(8,5)	(0,31)	(11,10)	(-9,7)	(10,10)	(21,1)	(13,12)	(12,89)	(9,63)	(4,2)	(5,3)	(-72,26)	(-2,7)	
L1D -8>	(-6,18)	(1,83)	(59,14)	(0,21)	(10,32)	(99,1)	(2,85)	(7,22)	(6,64)	(9,53)	(14,34)	(-70,29)	(11,24)	(129,21)	(19,34)	(8,64)	
L1D -7>	(0,63)	(1,111)	(34,15)	(-26,15)	(-8,5)	(-5,17)	(6,14)	(7,59)	(-1,15)	(5,20)	(27,10)	(59,11)	(10,9)	(-18,1)	(2,12)	(14,7)	
L1D -6>	(-9,1)	(1,82)	(4,3)	(-1,3)	(0,10)	(7,18)	(10,22)	(12,6)	(-21,1)	(2,12)	(3,3)	(-8,1)	(6,6)	(22,2)	(-7,8)	(5,7)	
L1D -5>	(4,10)	(-65,2)	(0,8)	(-10,2)	(1,124)	(-6,3)	(-64,2)	(-5,5)	(10,6)	(23,1)	(12,2)	(5,29)	(-11,13)	(-103,7)	(7,6)	(14,3)	
L1D -4>	(-4,9)	(25,1)	(0,60)	(4,112)	(7,8)	(8,17)	(3,16)	(-13,10)	(6,28)	(2,17)	(-5,5)	(5,13)	(13,10)	(-1,21)	(1,46)	(-2,11)	
L1D -3>	(65,1)	(0,80)	(1,56)	(3,60)	(-2,13)	(-5,5)	(-9,21)	(4,21)	(2,17)	(-62,2)	(5,12)	(10,5)	(9,5)	(6,25)	(-1,21)	(-3,11)	
L1D -2>	(127,2)	(27,1)	(13,14)	(8,6)	(2,109)	(1,14)	(19,20)	(-2,5)	(0,12)	(-6,2)	(-3,4)	(15,9)	(5,6)	(10,4)	(4,14)	(-13,1)	
L1D -1>	(87,1)	(7,7)	(-1,10)	(13,8)	(1,75)	(0,78)	(4,4)	(3,8)	(2,25)	(6,1)	(-6,10)	(-2,2)	(-7,3)	(-22,4)	(-3,4)	(8,6)	
L1D 0>	(0,70)	(-58,1)	(-2,6)	(33,1)	(-176,1)	(4,1)	(20,1)	(306,1)	(5,1)	(88,11)	(2,10)	(6,0)	(-56,0)	(8,1)	(1,4)	(3,2)	
L1D 1>	(1,77)	(8,1)	(-1,3)	(-19,1)	(58,1)	(41,1)	(5,3)	(-2,1)	(6,0)	(0,4)	(84,0)	(2,3)	(3,3)	(53,2)	(-5,4)	(10,1)	
L1D 2>	(17,16)	(6,6)	(0,124)	(1,17)	(-14,9)	(54,31)	(-10,1)	(-6,9)	(-2,21)	(-7,4)	(-8,4)	(2,82)	(8,6)	(-3,3)	(-1,11)	(-4,4)	
L1D 3>	(1,62)	(2,29)	(17,25)	(-3,72)	(5,37)	(0,26)	(-4,16)	(-10,4)	(6,22)	(-8,6)	(-1,11)	(-2,7)	(4,20)	(7,1)	(-5,7)	(3,19)	
L1D 4>	(-4,68)	(-10,11)	(-3,15)	(5,6)	(-7,8)	(6,6)	(0,10)	(-47,1)	(-12,25)	(4,30)	(1,27)	(3,3)	(-1,15)	(-5,7)	(2,11)	(11,22)	
L1D 5>	(-15,1)	(-5,32)	(0,12)	(98,5)	(-6,19)	(49,92)	(1,29)	(-3,8)	(4,14)	(8,6)	(2,10)	(-4,23)	(86,5)	(-7,5)	(-1,7)	(-69,35)	
L1D 6>	(-173,1)	(-6,46)	(-9,24)	(-7,33)	(1,59)	(-3,33)	(-12,58)	(14,63)	(0,20)	(2,35)	(-5,24)	(-8,62)	(13,4)	(-1,61)	(-2,23)	(-13,71)	
L1D 7>	(-7,119)	(-9,31)	(-4,55)	(0,96)	(11,10)	(-1,103)	(-10,81)	(1,101)	(2,61)	(-13,1)	(-27,34)	(4,61)	(-12,17)	(-2,40)	(-6,46)	(3,25)	
L1D 8>	(-163,1)	(1,89)	(-27,6)	(12,6)	(0,58)	(-9,8)	(-6,4)	(-2,9)	(8,58)	(4,13)	(-5,13)	(43,18)	(-10,16)	(-97,4)	(-7,13)	(-8,36)	
L1D 9>	(-10,36)	(-6,5)	(1,33)	(-94,5)	(0,19)	(-14,20)	(-24,3)	(-9,68)	(-7,16)	(-8,29)	(-12,4)	(-127,4)	(-11,13)	(-2,1)	(123,7)	(5,6)	
L1D 10>	(-7,6)	(8,16)	(-8,61)	(3,16)	(-3,17)	(-10,103)	(7,14)	(0,36)	(-4,27)	(6,6)	(-1,22)	(-28,1)	(-6,5)	(-2,22)	(1,9)	(-9,45)	
L1D 11>	(-118,51)	(1,81)	(-11,75)	(12,1)	(27,1)	(-10,2)	(-7,3)	(-2,6)	(-20,4)	(-4,1)	(23,3)	(-9,1)	(-8,2)	(128,0)	(51,6)	(-5,3)	
L1D 12>	(238,1)	(1,25)	(90,1)	(5,45)	(27,2)	(-3,109)	(-8,23)	(-7,55)	(-11,18)	(-12,41)	(0,8)	(-18,24)	(6,14)	(24,3)	(-2,69)	(-21,5)	
L1D 13>	(27,84)	(-22,2)	(7,6)	(-2,11)	(-4,8)	(-7,8)	(-34,9)	(12,1)	(-8,13)	(1,10)	(0,2)	(-13,3)	(9,4)	(-36,2)	(-15,1)	(-1,2)	
L1D 14>	(-11,50)	(7,9)	(-13,76)	(-4,7)	(-10,14)	(-6,3)	(-7,6)	(0,53)	(1,5)	(-2,11)	(-8,21)	(103,1)	(26,8)	(-14,22)	(-12,7)	(8,22)	
L1D 15>	(-18,10)	(-12,8)	(0,8)	(1,107)	(-15,16)	(-26,35)	(18,69)	(-4,16)	(313,6)	(-24,2)	(-5,30)	(5,10)	(-28,11)	(-19,8)	(-8,17)	(16,16)	
L1D 16>	(1,111)	(27,25)	(0,47)	(40,37)	(2,35)	(-7,46)	(-2,15)	(-10,7)	(-8,1)	(-6,38)	(-19,3)	(43,7)	(-12,15)	(-11,40)	(-16,100)	(332,13)	
L1D 17>	(-17,94)	(-44,1)	(-13,5)	(-5,12)	(-10,7)	(0,5)	(-31,2)	(-15,1)	(1,2)	(-23,2)	(-16,8)	(10,1)	(4,1)	(-28,1)	(-30,1)	(-27,1)	
L1D 18>	(-5,1)	(-7,7)	(91,13)	(-27,1)	(-13,36)	(1,11)	(-8,31)	(0,10)	(-12,5)	(-20,124)	(-10,11)	(-29,1)	(2,20)	(-9,4)	(86,6)	(-18,11)	
L1D 19>	(-17,92)	(-12,3)	(220,1)	(-25,1)	(234,1)	(-10,1)	(-1,10)	(-9,12)	(-20,24)	(-19,10)	(8,1)	(1,12)	(-18,2)	(-49,1)	(236,1)	(0,8)	
L1D 20>	(-16,35)	(-6,99)	(-21,67)	(0,22)	(-34,1)	(-1,16)	(8,13)	(6,26)	(-20,112)	(-26,25)	(-31,15)	(-10,49)	(-51,21)	(-7,24)	(-2,6)	(-14,20)	
L1D 21>	(-27,50)	(-12,69)	(8,91)	(6,17)	(20,1)	(-21,62)	(-16,66)	(-99,20)	(-18,20)	(2,20)	(-26,7)	(1,68)	(-61,109)	(-24,15)	(-31,64)	(-20,6)	
L1D 22>	(146,30)	(-12,28)	(-1,24)	(-108,1)	(3,30)	(8,2)	(-11,16)	(-28,54)	(-8,39)	(-19,14)	(1,15)	(-22,34)	(13,50)	(-23,14)	(0,10)	(-24,125)	
L1D 23>	(-1,121)	(-29,1)	(12,41)	(1,62)	(-23,93)	(15,74)	(3,88)	(-16,51)	(-18,17)	(0,23)	(-12,13)	(-22,4)	(-19,8)	(-13,14)	(-28,8)	(-24,6)	
L1D 24>	(0,122)	(-12,34)	(-11,80)	(146,25)	(-18,34)	(118,3)	(-49,6)	(-58,7)	(-24,60)	(-28,7)	(-1,19)	(-57,3)	(-30,1)	(1,65)	(29,22)	(-43,17)	
L1D 25>	(-26,9)	(-19,105)	(-27,59)	(2,1)	(1,11)	(117,2)	(0,25)	(-3,12)	(34,2)	(-28,6)	(-18,46)	(-133,36)	(-12,105)	(56,27)	(-25,98)	(-1,12)	
L1D 26>	(1,71)	(-21,1)	(174,2)	(54,29)	(-12,6)	(-26,55)	(-20,12)	(192,9)	(-25,23)	(2,71)	(-3,5)	(0,19)	(-29,6)	(-7,18)	(-24,2)	(-28,8)	
L1D 27>	(-34,52)	(-23,2)	(8,2)	(-14,0)	(53,0)	(4,6)	(-43,3)	(-48,2)	(-12,0)	(-28,0)	(-27,75)	(66,0)	(-7,0)	(-10,0)	(13,0)	(-133,0)	
L1D 28>	(-33,1)	(-28,98)	(-19,8)	(-14,28)	(8,11)	(0,7)	(-27,20)	(-35,7)	(-21,96)	(71,2)	(72,13)	(-37,3)	(2,52)	(-12,8)	(1,13)	(-1,9)	
L1D 29>	(-25,18)	(6,21)	(-15,82)	(-12,38)	(-28,25)	(-3,5)	(-29,37)	(0,7)	(69,4)	(-33,1)	(1,6)	(-6,1)	(5,1)	(-11,12)	(-8,2)	(-2,3)	
L1D 30>	(-30,22)	(-9,87)	(-13,79)	(-1,21)	(13,13)	(93,63)	(-2,17)	(-6,1)	(-31,36)	(-19,28)	(-25,7)	(1,21)	(72,9)	(75,66)	(-21,107)	(-35,126)	
L1D 31>	(-19,9)	(0,1)	(-31,58)	(-32,15)	(-11,2)	(10,7)	(-14,6)	(8,62)	(-7,2)	(-36,3)	(4,22)	(-8,49)	(7,20)	(47,1)	(-1,78)	(-6,3)	
L1D 32>	(8,60)	(23,2)	(-32,80)	(-2,6)	(0,21)	(70,51)	(-24,92)	(1,55)	(-14,9)	(-23,11)	(-22,7)	(-1,19)	(-12,4)	(-8,25)	(-25,42)	(-30,15)	
L1D 33>	(0,49)	(-33,111)	(6,7)	(-5,12)	(2,7)	(9,44)	(-1,16)	(-7,40)	(-37,20)	(1,11)	(-25,12)	(-3,30)	(-6,8)	(-31,6)	(243,1)	(-4,4)	
L1D 34>	(4,46)	(-34,76)	(-32,21)	(5,2)	(10,3)	(-36,44)	(26,14)	(-25,17)	(68,1)	(9,1)	(0,3)	(-8,18)	(-51,1)	(-33,52)	(-43,28)	(1,10)	
L1D 35>	(0,41)	(-6,3)	(-38,13)	(-35,26)	(7,7)	(-2,7)	(-8,7)	(-14,1)	(-117,3)	(-7,3)	(192,2)	(-1,4)	(-34,77)	(3,2)	(-5,2)	(-24,13)	
L1D 36>	(0,35)	(-1,24)	(-11,5)	(-36,123)	(-35,126)	(-7,8)	(-8,63)	(-34,70)	(2,77)	(4,23)	(-16,8)	(106,3)	(8,27)	(-64,15)	(13,1)	(128,24)	
L1D 37>	(-1,6)	(1,4)	(-5,5)	(-24,2)	(-45,1)	(-43,2)	(-3,1)	(-20,3)	(-6,3)	(5,1)	(-9,1)	(-37,25)	(-34,80)	(15,2)	(-8,4)	(159,6)	
L1D 38>	(386,0)	(5,0)	(76,0)	(-98,0)	(242,0)	(248,0)	(-34,0)	(11,65)	(1,1)	(-37,0)	(-5,0)	(-21,0)	(-30,0)	(-22,0)	(0,1)	(-38,1)	
L1D 39>	(-10,10)	(-21,34)	(-8,21)	(11,89)	(-4,18)	(13,1)	(-39,48)	(0,10)	(-30,12)	(-12,3)	(-99,34)	(103,9)	(1,11)	(-1,28)	(-5,6)	(-40,42)	
L1D 40>	(66,2)	(-25,67)	(65,12)	(-11,6)	(0,2)	(386,34)	(-8,21)	(-6,3)	(-40,86)	(-4,2)	(1,7)	(22,1)	(-10,2)	(-13,1)	(-1,14)	(-9,2)	
L1D 41>	(0,94)	(-41,104)	(-56,1)	(-5,7)	(-1,18)	(2,64)	(251,7)	(5,34)	(7,36)	(-24,31)	(-4,25)	(-10,5)	(8,57)	(-8,12)	(-11,10)	(101,4)	
L1D 42>	(-3,2)	(-9,1)	(-8,2)	(-41,33)	(67,6)	(-14,7)	(0,68)	(-35,1)	(-12,15)	(-10,2)	(-4,4)	(65,39)	(-7,9)	(-30,2)	(2,59)	(-42,19)	
L1D 43>	(-1,8)	(-10,5)	(-54,5)	(-34,1)	(-42,31)	(-15,1)	(-52,1)	(-43,15)	(-11,1)	(2,61)	(-7,1)	(-9,2)	(11,2)	(0,68)	(8,1)	(-4,4)	
L1D 44>	(-14,5)	(0,59)	(-45,19)	(-6,25)	(2,1)	(18,54)	(-32,22)	(-30,66)	(-1,13)	(11,26)	(1,67)	(-8,17)	(-44,34)	(-5,17)	(-118,12)	(24,10)	
L1D 45>	(11,5)	(10,0)	(-15,1)	(27,2)	(-6,3)	(0,75)	(8,9)	(-119,6)	(-5,3)	(5,1)	(-9,18)	(-44,2)	(-8,3)	(259,1)	(-1,7)	(-31,6)	
L1D 46>	(-45,60)	(26,92)	(1,20)	(-24,5)	(-9,4)	(63,2)	(-46,9)	(-58,1)	(-52,6)	(-32,16)	(-6,9)	(-51,1)	(-130,1)	(-14,1)	(47,4)	(-7,12)	
L1D 47>	(-46,106)	(-356,0)	(-87,0)	(-2,0)	(11,14)	(-13,3)	(-7,6)	(151,0)	(-24,2)	(-47,0)	(-4,10)	(0,1)	(-12,3)	(-14,1)	(-1,12)	(-15,0)	
L1D 48>	(2,15)	(-32,50)	(-1,25)	(-15,8)	(-4,7)	(14,1)	(-10,1)	(103,1)	(15,32)	(0,55)	(-49,50)	(-48,71)	(8,1)	(-14,8)	(-39,3)	(-5,39)	
L1D 49>	(-24,1)	(100,1)	(-11,114)	(-58,0)	(1,0)	(0,0)	(-4,0)	(5,0)	(-54,1)	(-31,0)	(-49,0)	(251,0)	(-37,0)	(-8,1)	(-26,0)	(-118,4)	
L1D 50>	(-110,18)	(-4,11)	(-2,89)	(-15,34)	(21,94)	(9,78)	(0,3)	(-24,5)	(-8,38)	(-49,27)	(-1,20)	(-50,26)	(-5,41)	(-48,30)	(-32,30)	(-12,28)	
L1D 51>	(-50,92)	(1,4)	(-8,13)	(-54,127)	(0,7)	(-12,6)	(-19,9)	(-16,6)	(-51,12)	(-11,12)	(-95,3)	(-4,10)	(-24,11)	(33,1)	(-5,32)	(-17,3)	
L1D 52>	(-5,3)	(-12,122)	(1,2)	(-32,21)	(0,14)	(-55,35)	(-23,11)	(-6,14)	(106,4)	(-52,61)	(-15,3)	(61,3)	(-24,34)	(-20,1)	(-8,31)	(-51,11)	
L1D 53>	(-52,93)	(0,3)	(1,0)	(-109,0)	(-129,0)	(-48,0)	(-9,0)	(-86,0)	(-55,0)	(-53,1)	(-90,0)	(108,0)	(6,0)	(-5,0)	(170,0)	(64,0)	
L1D 54>	(-109,107)	(-52,1)	(-4,0)	(108,1)	(-43,0)	(-81,0)	(0,0)	(39,0)	(-24,0)	(2,0)	(-54,8)	(-49,0)	(-53,0)	(-131,0)	(107,0)	(1,0)	
L1D 55>	(-54,4)	(1,3)	(121,1)	(-2,1)	(-1,5)	(-6,3)	(-398,1)	(-76,9)	(-11,2)	(-8,7)	(-55,28)	(-5,1)	(-50,1)	(54,1)	(-24,17)	(0,81)	
L1D 56>	(-40,10)	(-23,5)	(-56,80)	(-1,35)	(2,4)	(-54,4)	(-11,43)	(-24,29)	(-27,1)	(0,76)	(61,70)	(-64,3)	(-8,20)	(1,9)	(56,1)	(-57,30)	
L1D 57>	(-46,2)	(-403,10)	(-57,117)	(0,6)	(-1,22)	(-75,2)	(60,4)	(-24,25)	(-80,1)	(-306,2)	(-137,1)	(-82,2)	(-50,3)	(-8,12)	(-44,1)	(-78,5)	
L1D 58>	(-2,0)	(8,0)	(-56,0)	(170,0)	(-43,0)	(-62,0)	(-11,80)	(16,1)	(-58,2)	(-10,0)	(-7,0)	(17,0)	(-21,19)	(1,0)	(125,0)	(-4,0)	
[...]
L1D 481>	(4,7)	(3,1)	(1,0)	(1,0)	(1,0)	(1,0)	(1,0)	(1,0)	(1,0)	(1,0)	(1,0)	(1,0)	(1,0)	(1,0)	(1,0)	(1,0)	
L1D 482>	(1,1)	(4,2)	(-193,1)	(-117,1)	(-119,2)	(-282,1)	(1,0)	(1,0)	(1,0)	(1,0)	(1,0)	(1,0)	(1,0)	(1,0)	(1,0)	(1,0)	
L1D 483>	(0,3)	(4,5)	(1,1)	(-483,4)	(1,0)	(1,0)	(1,0)	(1,0)	(1,0)	(1,0)	(1,0)	(1,0)	(1,0)	(1,0)	(1,0)	(1,0)	
L1D 484>	(-192,2)	(1,0)	(1,0)	(1,0)	(1,0)	(1,0)	(1,0)	(1,0)	(1,0)	(1,0)	(1,0)	(1,0)	(1,0)	(1,0)	(1,0)	(1,0)	
L1D 485>	(11,2)	(-218,1)	(-192,33)	(4,5)	(-92,1)	(1,0)	(1,0)	(1,0)	(1,0)	(1,0)	(1,0)	(1,0)	(1,0)	(1,0)	(1,0)	(1,0)	
L1D 486>	(-128,1)	(4,2)	(-95,1)	(-160,1)	(-218,2)	(1,1)	(1,0)	(1,0)	(1,0)	(1,0)	(1,0)	(1,0)	(1,0)	(1,0)	(1,0)	(1,0)	
L1D 487>	(4,1)	(-192,1)	(-486,2)	(1,0)	(1,0)	(1,0)	(1,0)	(1,0)	(1,0)	(1,0)	(1,0)	(1,0)	(1,0)	(1,0)	(1,0)	(1,0)	
L1D 488>	(-16,1)	(-128,1)	(-40,1)	(-32,1)	(1,0)	(1,0)	(1,0)	(1,0)	(1,0)	(1,0)	(1,0)	(1,0)	(1,0)	(1,0)	(1,0)	(1,0)	
L1D 489>	(4,1)	(0,1)	(1,0)	(1,0)	(1,0)	(1,0)	(1,0)	(1,0)	(1,0)	(1,0)	(1,0)	(1,0)	(1,0)	(1,0)	(1,0)	(1,0)	
L1D 490>	(-491,1)	(-88,1)	(1,2)	(-204,1)	(0,1)	(-401,1)	(1,0)	(1,0)	(1,0)	(1,0)	(1,0)	(1,0)	(1,0)	(1,0)	(1,0)	(1,0)	
L1D 491>	(-491,1)	(1,1)	(1,0)	(1,0)	(1,0)	(1,0)	(1,0)	(1,0)	(1,0)	(1,0)	(1,0)	(1,0)	(1,0)	(1,0)	(1,0)	(1,0)	
L1D 492>	(1,1)	(-10,1)	(2,1)	(0,1)	(-48,1)	(-492,1)	(1,0)	(1,0)	(1,0)	(1,0)	(1,0)	(1,0)	(1,0)	(1,0)	(1,0)	(1,0)	
L1D 493>	(11,1)	(4,1)	(1,0)	(1,0)	(1,0)	(1,0)	(1,0)	(1,0)	(1,0)	(1,0)	(1,0)	(1,0)	(1,0)	(1,0)	(1,0)	(1,0)	
L1D 494>	(1,2)	(-218,1)	(-10,1)	(-192,2)	(1,0)	(1,0)	(1,0)	(1,0)	(1,0)	(1,0)	(1,0)	(1,0)	(1,0)	(1,0)	(1,0)	(1,0)	
L1D 495>	(4,1)	(1,0)	(1,0)	(1,0)	(1,0)	(1,0)	(1,0)	(1,0)	(1,0)	(1,0)	(1,0)	(1,0)	(1,0)	(1,0)	(1,0)	(1,0)	
L1D 496>	(-148,1)	(1,0)	(1,0)	(1,0)	(1,0)	(1,0)	(1,0)	(1,0)	(1,0)	(1,0)	(1,0)	(1,0)	(1,0)	(1,0)	(1,0)	(1,0)	
L1D 497>	(-2,1)	(0,1)	(1,0)	(1,0)	(1,0)	(1,0)	(1,0)	(1,0)	(1,0)	(1,0)	(1,0)	(1,0)	(1,0)	(1,0)	(1,0)	(1,0)	
L1D 498>	(-182,1)	(4,1)	(1,0)	(1,0)	(1,0)	(1,0)	(1,0)	(1,0)	(1,0)	(1,0)	(1,0)	(1,0)	(1,0)	(1,0)	(1,0)	(1,0)	
L1D 499>	(-405,4)	(11,1)	(-150,1)	(-214,1)	(1,0)	(1,0)	(1,0)	(1,0)	(1,0)	(1,0)	(1,0)	(1,0)	(1,0)	(1,0)	(1,0)	(1,0)	
L1D 500>	(-488,1)	(-500,1)	(1,0)	(1,0)	(1,0)	(1,0)	(1,0)	(1,0)	(1,0)	(1,0)	(1,0)	(1,0)	(1,0)	(1,0)	(1,0)	(1,0)	
L1D 501>	(4,1)	(1,0)	(1,0)	(1,0)	(1,0)	(1,0)	(1,0)	(1,0)	(1,0)	(1,0)	(1,0)	(1,0)	(1,0)	(1,0)	(1,0)	(1,0)	
L1D 502>	(1,1)	(1,0)	(1,0)	(1,0)	(1,0)	(1,0)	(1,0)	(1,0)	(1,0)	(1,0)	(1,0)	(1,0)	(1,0)	(1,0)	(1,0)	(1,0)	
L1D 503>	(4,1)	(1,0)	(1,0)	(1,0)	(1,0)	(1,0)	(1,0)	(1,0)	(1,0)	(1,0)	(1,0)	(1,0)	(1,0)	(1,0)	(1,0)	(1,0)	
L1D 504>	(-375,7)	(-479,1)	(1,0)	(1,0)	(1,0)	(1,0)	(1,0)	(1,0)	(1,0)	(1,0)	(1,0)	(1,0)	(1,0)	(1,0)	(1,0)	(1,0)	
L1D 505>	(1,0)	(1,0)	(1,0)	(1,0)	(1,0)	(1,0)	(1,0)	(1,0)	(1,0)	(1,0)	(1,0)	(1,0)	(1,0)	(1,0)	(1,0)	(1,0)	
L1D 506>	(0,1)	(1,0)	(1,0)	(1,0)	(1,0)	(1,0)	(1,0)	(1,0)	(1,0)	(1,0)	(1,0)	(1,0)	(1,0)	(1,0)	(1,0)	(1,0)	
L1D 507>	(1,0)	(1,0)	(1,0)	(1,0)	(1,0)	(1,0)	(1,0)	(1,0)	(1,0)	(1,0)	(1,0)	(1,0)	(1,0)	(1,0)	(1,0)	(1,0)	
L1D 508>	(1,0)	(1,0)	(1,0)	(1,0)	(1,0)	(1,0)	(1,0)	(1,0)	(1,0)	(1,0)	(1,0)	(1,0)	(1,0)	(1,0)	(1,0)	(1,0)	
L1D 509>	(1,0)	(1,0)	(1,0)	(1,0)	(1,0)	(1,0)	(1,0)	(1,0)	(1,0)	(1,0)	(1,0)	(1,0)	(1,0)	(1,0)	(1,0)	(1,0)	
L1D 510>	(1,0)	(1,0)	(1,0)	(1,0)	(1,0)	(1,0)	(1,0)	(1,0)	(1,0)	(1,0)	(1,0)	(1,0)	(1,0)	(1,0)	(1,0)	(1,0)	
L1D 511>	(1,0)	(1,0)	(1,0)	(1,0)	(1,0)	(1,0)	(1,0)	(1,0)	(1,0)	(1,0)	(1,0)	(1,0)	(1,0)	(1,0)	(1,0)	(1,0)	

L2C -64>	(18,1)	(1,192)	(2,24)	(-1,45)	(-2,106)	(3,13)	(7,7)	(4,6)	(26,3)	(6,10)	(0,19)	(11,8)	(-5,9)	(-8,3)	(9,2)	(-3,51)	
L2C -63>	(0,1)	(9,1)	(1,1)	(1,0)	(1,0)	(1,0)	(1,0)	(1,0)	(1,0)	(1,0)	(1,0)	(1,0)	(1,0)	(1,0)	(1,0)	(1,0)	
L2C -62>	(58,1)	(25,1)	(18,3)	(-1,1)	(24,1)	(42,1)	(1,3)	(9,3)	(2,1)	(4,1)	(56,1)	(11,1)	(1,0)	(1,0)	(1,0)	(1,0)	
L2C -61>	(1,4)	(11,3)	(18,2)	(-1,1)	(43,1)	(2,1)	(36,2)	(14,1)	(13,1)	(7,1)	(5,1)	(1,0)	(1,0)	(1,0)	(1,0)	(1,0)	
L2C -60>	(1,10)	(-2,1)	(9,4)	(43,1)	(11,1)	(38,1)	(15,1)	(62,1)	(29,1)	(4,1)	(20,1)	(8,1)	(18,2)	(10,1)	(41,1)	(13,1)	
L2C -59>	(1,20)	(57,2)	(11,9)	(14,1)	(2,2)	(8,4)	(24,1)	(9,3)	(-1,3)	(12,2)	(5,1)	(7,4)	(46,1)	(-2,1)	(1,0)	(1,0)	
L2C -58>	(1,10)	(22,1)	(9,5)	(11,26)	(48,1)	(57,1)	(14,2)	(43,1)	(42,2)	(34,1)	(-2,1)	(8,10)	(7,1)	(54,1)	(59,2)	(0,1)	
L2C -57>	(1,33)	(11,47)	(56,3)	(47,1)	(-2,2)	(2,1)	(9,10)	(35,1)	(31,1)	(33,3)	(22,4)	(-1,1)	(55,3)	(41,1)	(6,3)	(44,1)	
L2C -56>	(11,172)	(8,1)	(40,1)	(44,4)	(1,7)	(21,1)	(2,1)	(55,2)	(-1,6)	(9,10)	(22,16)	(14,1)	(33,4)	(27,0)	(50,0)	(4,0)	
L2C -55>	(2,5)	(12,3)	(49,3)	(10,38)	(-1,15)	(55,7)	(11,7)	(14,5)	(1,19)	(21,4)	(54,1)	(32,2)	(43,1)	(3,5)	(53,1)	(9,4)	
L2C -54>	(1,36)	(54,7)	(10,3)	(7,2)	(3,6)	(5,1)	(4,3)	(11,3)	(51,1)	(50,2)	(9,3)	(48,2)	(-3,1)	(42,1)	(0,2)	(2,5)	
L2C -53>	(-1,5)	(35,3)	(1,28)	(2,4)	(5,3)	(18,4)	(7,5)	(20,1)	(11,2)	(48,6)	(54,7)	(10,3)	(6,2)	(19,1)	(49,2)	(26,1)	
L2C -52>	(1,41)	(18,3)	(-1,1)	(51,4)	(53,5)	(45,1)	(26,2)	(56,3)	(11,4)	(2,5)	(27,1)	(34,2)	(21,1)	(6,7)	(47,1)	(36,1)	
L2C -51>	(4,3)	(28,1)	(5,3)	(1,30)	(-12,1)	(2,5)	(7,4)	(52,6)	(3,8)	(31,2)	(51,4)	(62,1)	(33,1)	(11,5)	(-3,2)	(-1,9)	
L2C -50>	(5,5)	(48,2)	(14,4)	(2,9)	(-1,12)	(43,2)	(51,9)	(17,3)	(1,41)	(3,1)	(55,1)	(-5,4)	(28,2)	(-4,2)	(16,1)	(40,1)	
L2C -49>	(8,2)	(0,5)	(1,44)	(2,5)	(27,1)	(5,2)	(9,2)	(22,2)	(52,2)	(-1,3)	(4,12)	(12,3)	(11,6)	(13,2)	(25,2)	(36,3)	
L2C -48>	(1,49)	(22,2)	(-5,3)	(15,2)	(49,8)	(-3,2)	(0,6)	(5,5)	(48,20)	(11,12)	(-8,2)	(37,3)	(47,2)	(2,2)	(-1,9)	(34,1)	
L2C -47>	(11,22)	(31,1)	(1,56)	(7,11)	(2,7)	(47,4)	(27,3)	(-2,5)	(-4,4)	(-1,4)	(25,3)	(6,5)	(13,4)	(8,6)	(22,2)	(50,2)	
L2C -46>	(2,6)	(11,42)	(1,36)	(44,10)	(5,4)	(7,6)	(26,3)	(-1,10)	(-2,1)	(4,4)	(3,2)	(45,3)	(47,3)	(13,2)	(33,4)	(52,4)	
L2C -45>	(44,2)	(11,154)	(-7,1)	(35,1)	(1,11)	(22,20)	(-4,1)	(46,2)	(2,4)	(-5,1)	(3,2)	(7,1)	(33,5)	(8,2)	(13,1)	(-1,5)	
L2C -44>	(12,3)	(1,57)	(41,5)	(2,22)	(-1,13)	(44,15)	(4,3)	(43,8)	(34,5)	(-11,10)	(14,7)	(11,14)	(3,1)	(22,1)	(10,54)	(0,4)	
L2C -43>	(1,76)	(2,14)	(-5,5)	(6,1)	(41,8)	(5,2)	(8,5)	(3,14)	(44,5)	(-1,8)	(11,4)	(45,3)	(7,7)	(-9,2)	(27,3)	(16,2)	
L2C -42>	(4,3)	(1,41)	(43,13)	(-1,13)	(2,30)	(6,7)	(30,2)	(8,4)	(51,3)	(5,5)	(-3,2)	(45,3)	(11,6)	(7,6)	(15,4)	(36,1)	
L2C -41>	(15,8)	(1,44)	(-1,19)	(4,5)	(43,29)	(39,11)	(2,26)	(42,10)	(0,18)	(37,26)	(8,8)	(-5,7)	(7,7)	(9,11)	(12,1)	(44,5)	
L2C -40>	(-1,12)	(1,33)	(43,36)	(2,28)	(6,7)	(3,8)	(41,31)	(9,1)	(-6,3)	(27,5)	(5,3)	(13,4)	(42,5)	(26,3)	(0,2)	(18,3)	
L2C -39>	(1,53)	(11,9)	(-1,10)	(39,6)	(26,4)	(8,4)	(10,2)	(-5,3)	(47,2)	(2,26)	(41,4)	(44,4)	(3,8)	(42,5)	(5,1)	(40,14)	
L2C -38>	(7,7)	(2,31)	(4,3)	(35,4)	(36,4)	(-2,1)	(21,2)	(40,6)	(1,56)	(55,1)	(-1,9)	(11,4)	(39,31)	(25,4)	(3,16)	(-17,2)	
L2C -37>	(35,5)	(2,19)	(38,5)	(36,6)	(1,72)	(-1,11)	(42,5)	(32,3)	(0,10)	(-2,5)	(-8,1)	(11,11)	(-16,7)	(9,6)	(27,3)	(8,7)	
L2C -36>	(2,23)	(-1,12)	(1,84)	(4,6)	(11,21)	(49,4)	(3,16)	(38,10)	(10,6)	(13,8)	(6,3)	(33,10)	(-7,4)	(29,1)	(-9,2)	(35,4)	
L2C -35>	(1,106)	(4,5)	(5,6)	(2,40)	(-3,6)	(3,15)	(33,16)	(39,7)	(-7,2)	(37,9)	(6,4)	(-5,1)	(8,10)	(11,27)	(38,9)	(47,3)	
L2C -34>	(1,48)	(22,25)	(5,1)	(2,15)	(33,9)	(-3,1)	(-16,1)	(-4,3)	(11,146)	(31,2)	(7,2)	(8,4)	(34,3)	(0,2)	(-2,2)	(-17,1)	
L2C -33>	(1,68)	(10,52)	(3,21)	(2,87)	(11,15)	(33,1)	(13,4)	(20,6)	(-1,20)	(32,12)	(27,7)	(37,7)	(14,8)	(7,8)	(4,6)	(-5,4)	
L2C -32>	(1,120)	(-7,8)	(3,36)	(-1,24)	(2,66)	(-18,1)	(35,6)	(14,2)	(-5,7)	(6,11)	(17,4)	(10,4)	(39,6)	(16,2)	(-6,2)	(-2,12)	
L2C -31>	(-11,5)	(2,58)	(0,12)	(1,77)	(-2,7)	(3,27)	(32,12)	(36,1)	(-1,30)	(8,4)	(11,6)	(33,5)	(6,8)	(-13,4)	(37,4)	(-5,4)	
L2C -30>	(-1,34)	(1,92)	(3,19)	(0,9)	(14,4)	(-2,8)	(6,11)	(2,60)	(4,7)	(28,1)	(9,8)	(5,12)	(-5,7)	(29,7)	(30,6)	(33,4)	
L2C -29>	(1,92)	(-1,37)	(11,16)	(3,19)	(-25,1)	(18,8)	(2,83)	(20,5)	(27,13)	(9,8)	(28,6)	(-11,3)	(32,3)	(29,10)	(0,34)	(10,21)	
L2C -28>	(1,102)	(29,11)	(25,1)	(-6,8)	(5,11)	(0,7)	(30,10)	(10,9)	(-1,23)	(27,3)	(12,4)	(18,11)	(8,4)	(9,5)	(2,27)	(20,3)	
L2C -27>	(-7,6)	(-8,7)	(0,25)	(28,10)	(26,7)	(27,19)	(1,115)	(5,14)	(12,1)	(4,11)	(2,55)	(25,12)	(3,33)	(10,17)	(-1,36)	(9,13)	
L2C -26>	(11,12)	(24,9)	(36,11)	(16,12)	(-1,43)	(-6,7)	(27,9)	(0,8)	(29,1)	(-4,9)	(25,7)	(1,85)	(4,17)	(18,8)	(2,28)	(6,12)	
L2C -25>	(7,1)	(1,87)	(2,30)	(-1,33)	(4,12)	(19,4)	(11,38)	(-13,8)	(12,18)	(0,24)	(5,15)	(17,14)	(8,10)	(10,22)	(9,17)	(13,6)	
L2C -24>	(11,24)	(5,16)	(1,126)	(3,24)	(10,10)	(25,6)	(-8,14)	(2,11)	(-1,30)	(30,1)	(26,4)	(-13,3)	(-2,24)	(-22,4)	(18,6)	(27,5)	
L2C -23>	(3,12)	(1,56)	(19,5)	(7,6)	(14,5)	(12,5)	(11,172)	(33,1)	(8,7)	(-1,34)	(21,5)	(2,16)	(5,6)	(23,4)	(22,19)	(-19,2)	
L2C -22>	(1,131)	(4,17)	(25,1)	(11,35)	(21,17)	(15,8)	(2,23)	(-11,19)	(-3,17)	(27,7)	(16,7)	(10,70)	(9,14)	(-1,51)	(-5,10)	(14,18)	
L2C -21>	(1,137)	(15,17)	(0,193)	(23,10)	(-1,37)	(10,5)	(12,8)	(-6,12)	(22,12)	(-11,3)	(9,14)	(18,6)	(19,10)	(21,39)	(11,22)	(48,1)	
L2C -20>	(-1,45)	(-4,14)	(13,9)	(18,9)	(1,117)	(-36,1)	(4,10)	(21,11)	(16,15)	(5,14)	(14,9)	(3,19)	(-7,9)	(11,21)	(12,10)	(-2,13)	
L2C -19>	(1,167)	(3,57)	(0,232)	(9,8)	(18,14)	(10,27)	(-3,32)	(4,21)	(12,18)	(17,16)	(2,44)	(21,11)	(-9,1)	(20,16)	(-22,9)	(14,10)	
L2C -18>	(1,133)	(25,4)	(-2,35)	(19,53)	(3,16)	(0,5)	(-6,4)	(2,20)	(9,1)	(4,9)	(32,3)	(16,9)	(6,5)	(27,2)	(17,4)	(5,8)	
L2C -17>	(24,1)	(1,152)	(29,2)	(-1,3)	(26,5)	(19,12)	(18,43)	(6,3)	(-2,30)	(28,4)	(25,5)	(4,2)	(-3,5)	(3,11)	(27,3)	(2,18)	
L2C -16>	(8,1)	(1,146)	(-12,6)	(-1,32)	(0,52)	(2,151)	(-3,15)	(17,27)	(16,25)	(3,135)	(13,12)	(15,11)	(10,15)	(9,7)	(-7,6)	(20,7)	
L2C -15>	(1,248)	(5,32)	(6,18)	(11,37)	(8,15)	(12,10)	(2,36)	(26,8)	(-2,38)	(18,17)	(-1,62)	(19,14)	(10,41)	(7,27)	(-10,1)	(-12,10)	
L2C -14>	(38,1)	(-5,16)	(1,218)	(16,18)	(15,31)	(11,40)	(-1,61)	(2,88)	(18,12)	(5,36)	(3,26)	(-8,13)	(8,29)	(-2,18)	(4,14)	(0,11)	
L2C -13>	(1,231)	(24,1)	(5,23)	(2,43)	(-4,21)	(15,28)	(6,16)	(16,30)	(8,23)	(-11,12)	(0,82)	(-1,75)	(-6,12)	(12,35)	(-2,36)	(14,45)	
L2C -12>	(1,156)	(5,30)	(2,32)	(11,199)	(13,24)	(15,12)	(14,9)	(-12,6)	(-29,1)	(-1,43)	(8,29)	(6,11)	(22,7)	(23,7)	(-10,6)	(33,3)	
L2C -11>	(1,130)	(10,64)	(2,24)	(-11,16)	(-2,25)	(17,14)	(-3,15)	(-7,10)	(3,30)	(13,4)	(-9,5)	(22,1)	(-8,4)	(21,6)	(-1,47)	(15,9)	
L2C -10>	(5,60)	(-2,33)	(1,247)	(11,53)	(9,38)	(29,15)	(16,9)	(-4,19)	(6,47)	(-17,1)	(0,76)	(19,6)	(-1,91)	(14,14)	(8,110)	(2,16)	
L2C -9>	(9,96)	(2,28)	(21,6)	(1,130)	(26,6)	(-11,1)	(6,36)	(7,10)	(-1,45)	(-7,9)	(3,23)	(8,29)	(12,9)	(-5,7)	(17,6)	(-2,12)	
L2C -8>	(1,52)	(6,13)	(2,20)	(56,1)	(8,225)	(0,28)	(5,10)	(9,29)	(-1,32)	(17,3)	(-2,28)	(3,11)	(-6,6)	(27,14)	(7,10)	(10,14)	
L2C -7>	(8,43)	(1,197)	(-1,62)	(9,28)	(22,5)	(18,1)	(5,45)	(0,16)	(3,25)	(10,23)	(2,36)	(11,12)	(-4,15)	(-5,15)	(12,12)	(4,37)	
L2C -6>	(-5,17)	(1,214)	(-28,1)	(7,41)	(3,39)	(2,47)	(-1,60)	(0,33)	(6,72)	(4,95)	(-3,16)	(9,28)	(5,45)	(8,33)	(-7,12)	(10,46)	
L2C -5>	(-2,161)	(2,87)	(1,133)	(0,35)	(44,1)	(-3,46)	(6,41)	(-1,67)	(-4,45)	(5,21)	(-5,22)	(-6,17)	(3,42)	(10,19)	(4,68)	(8,44)	
L2C -4>	(6,23)	(1,155)	(2,79)	(-3,114)	(-1,131)	(4,24)	(10,27)	(13,7)	(3,27)	(5,59)	(0,55)	(-5,34)	(-4,42)	(-2,24)	(-47,1)	(7,15)	
L2C -3>	(-1,51)	(1,151)	(5,19)	(-4,7)	(6,5)	(-3,8)	(22,38)	(4,55)	(8,1)	(2,55)	(-2,9)	(3,25)	(13,3)	(10,6)	(7,8)	(0,20)	
L2C -2>	(42,1)	(-3,16)	(-1,66)	(4,19)	(29,3)	(1,162)	(-5,10)	(5,9)	(-2,6)	(10,2)	(24,2)	(3,40)	(2,51)	(0,222)	(-4,5)	(18,5)	
L2C -1>	(-1,149)	(1,160)	(0,96)	(4,11)	(2,225)	(5,7)	(11,11)	(-3,18)	(14,1)	(-16,8)	(-4,6)	(6,6)	(7,3)	(-5,2)	(3,78)	(-2,10)	
L2C 0>	(2,5)	(5,1)	(1,9)	(0,180)	(-4,1)	(-1,44)	(-16,1)	(-6,1)	(-3,1)	(3,1)	(8,1)	(-8,11)	(-2,2)	(21,1)	(19,1)	(25,0)	
L2C 1>	(1,156)	(-4,10)	(29,3)	(25,1)	(-6,5)	(-1,28)	(3,12)	(-2,14)	(0,12)	(-3,21)	(2,42)	(37,1)	(-5,6)	(-9,1)	(4,8)	(18,12)	
L2C 2>	(1,177)	(8,3)	(-6,11)	(-1,219)	(-2,59)	(2,36)	(-3,27)	(4,6)	(0,12)	(11,4)	(-5,20)	(18,27)	(3,14)	(-19,11)	(-38,1)	(-4,15)	
L2C 3>	(-2,54)	(15,4)	(1,217)	(11,1)	(-1,114)	(4,7)	(3,10)	(19,17)	(-7,8)	(-3,34)	(-6,24)	(-4,24)	(-5,11)	(18,13)	(2,38)	(-12,6)	
L2C 4>	(1,152)	(3,38)	(-29,1)	(-4,16)	(-7,7)	(2,45)	(-2,26)	(4,7)	(-6,12)	(-5,19)	(11,5)	(-3,40)	(9,4)	(7,4)	(5,5)	(-1,41)	
L2C 5>	(1,172)	(-12,13)	(-1,92)	(5,21)	(-2,73)	(2,47)	(-6,39)	(-11,9)	(-4,83)	(-8,1)	(-5,45)	(14,9)	(-10,11)	(10,28)	(-13,9)	(3,22)	
L2C 6>	(-6,29)	(1,132)	(0,34)	(4,14)	(-5,79)	(3,30)	(-11,7)	(7,7)	(2,35)	(-7,27)	(-2,32)	(8,12)	(-1,60)	(5,16)	(15,23)	(17,1)	
L2C 7>	(1,150)	(3,79)	(6,1)	(-9,18)	(-11,13)	(-8,25)	(-1,128)	(-5,104)	(2,48)	(14,75)	(-2,51)	(-24,7)	(0,12)	(5,23)	(-4,192)	(9,16)	
L2C 8>	(-11,10)	(2,54)	(-1,26)	(1,124)	(15,3)	(0,156)	(8,7)	(-8,70)	(11,5)	(-5,72)	(14,7)	(-7,31)	(5,11)	(20,1)	(-4,12)	(-6,14)	
L2C 9>	(1,217)	(-1,55)	(5,13)	(11,72)	(-8,42)	(-13,19)	(0,79)	(-11,24)	(-12,23)	(-4,14)	(14,5)	(-5,53)	(-22,11)	(3,20)	(2,75)	(7,1)	
L2C 10>	(11,102)	(1,141)	(-9,25)	(3,25)	(-8,22)	(-10,29)	(-5,134)	(-11,50)	(2,35)	(-1,51)	(-6,15)	(-22,8)	(15,13)	(-15,8)	(4,1)	(10,8)	
L2C 11>	(-23,13)	(11,148)	(1,11)	(-3,2)	(6,2)	(-34,6)	(-35,1)	(-15,5)	(-1,6)	(4,1)	(-56,11)	(22,4)	(-45,20)	(-55,3)	(-13,2)	(-12,12)	
L2C 12>	(1,228)	(-5,149)	(18,6)	(-13,52)	(2,76)	(5,18)	(-4,122)	(6,11)	(-10,30)	(-6,23)	(-1,91)	(-26,8)	(-53,1)	(-7,28)	(10,22)	(-3,19)	
L2C 13>	(-12,34)	(-13,75)	(1,210)	(2,53)	(-14,62)	(-1,68)	(-18,16)	(0,16)	(-22,15)	(-21,1)	(-26,11)	(-7,17)	(-3,35)	(-15,20)	(-2,21)	(-17,20)	
L2C 14>	(33,9)	(8,8)	(-13,41)	(16,5)	(1,207)	(-16,26)	(6,11)	(-1,69)	(13,1)	(-7,19)	(2,62)	(21,4)	(-4,45)	(-3,24)	(0,23)	(3,21)	
L2C 15>	(-14,29)	(1,221)	(2,57)	(-15,58)	(-16,26)	(-2,36)	(-11,18)	(-1,46)	(-27,13)	(-9,16)	(-20,7)	(-5,38)	(-26,1)	(-12,17)	(-3,12)	(7,14)	
L2C 16>	(-1,51)	(1,180)	(-18,17)	(5,16)	(-15,37)	(24,5)	(2,87)	(-16,91)	(4,15)	(-22,1)	(-17,47)	(-5,19)	(28,3)	(0,17)	(-11,11)	(-9,11)	
L2C 17>	(1,172)	(-4,19)	(-17,30)	(2,80)	(-16,115)	(-1,64)	(4,19)	(-9,1)	(-18,42)	(14,3)	(-8,6)	(-11,10)	(-29,12)	(-22,9)	(-2,18)	(0,10)	
L2C 18>	(-48,1)	(4,1)	(1,6)	(-17,133)	(-30,0)	(-16,23)	(-19,3)	(19,2)	(-31,0)	(-4,0)	(-1,5)	(-20,1)	(-12,1)	(-6,1)	(-2,0)	(7,0)	
L2C 19>	(2,86)	(1,128)	(-18,225)	(-16,74)	(-1,160)	(-15,12)	(-11,9)	(-17,18)	(11,19)	(-13,8)	(-27,13)	(-19,136)	(-20,15)	(-21,26)	(-12,1)	(-4,20)	
L2C 20>	(-19,20)	(-17,57)	(7,1)	(-1,45)	(1,97)	(-23,17)	(6,14)	(-13,12)	(4,13)	(-18,28)	(-16,52)	(-5,12)	(11,22)	(-21,9)	(-25,7)	(-15,23)	
L2C 21>	(1,116)	(4,23)	(-17,19)	(11,31)	(-22,15)	(-21,172)	(-2,22)	(-19,15)	(-18,15)	(-1,29)	(-4,1)	(2,9)	(3,21)	(-3,5)	(-20,6)	(0,18)	
L2C 22>	(1,61)	(-56,31)	(-14,8)	(-1,21)	(-18,250)	(-23,16)	(11,179)	(-55,3)	(6,6)	(-34,7)	(-44,5)	(-28,5)	(-33,9)	(3,9)	(-21,8)	(-6,1)	
L2C 23>	(1,97)	(-23,8)	(-4,9)	(9,1)	(4,17)	(-12,11)	(-7,7)	(-1,23)	(-20,5)	(-5,10)	(-17,8)	(5,2)	(-22,16)	(-15,4)	(-3,9)	(-27,7)	
L2C 24>	(-9,14)	(-23,13)	(1,87)	(3,14)	(-1,29)	(-27,10)	(2,24)	(-22,15)	(-8,7)	(-33,6)	(-19,15)	(-10,5)	(-12,12)	(-6,1)	(-15,6)	(-17,13)	
L2C 25>	(-24,16)	(-25,16)	(3,9)	(2,89)	(-1,42)	(1,104)	(-19,12)	(-8,9)	(-4,11)	(4,11)	(-15,10)	(-3,1)	(-10,4)	(-9,9)	(-22,5)	(-17,16)	
L2C 26>	(1,92)	(-1,22)	(-25,16)	(-9,10)	(-4,19)	(-15,12)	(-6,10)	(-17,5)	(-13,6)	(2,13)	(-22,8)	(-23,1)	(-19,13)	(3,11)	(-27,8)	(-3,8)	
L2C 27>	(-26,17)	(-19,47)	(1,116)	(3,8)	(-4,1)	(10,3)	(-21,9)	(-14,6)	(-36,3)	(-29,10)	(-27,24)	(-31,8)	(-2,9)	(4,12)	(-13,4)	(-7,4)	
L2C 28>	(2,16)	(1,121)	(-1,46)	(10,3)	(-5,18)	(5,1)	(-26,14)	(-35,3)	(-34,6)	(-16,3)	(-11,6)	(-17,13)	(-7,6)	(-33,9)	(-32,6)	(-29,4)	
L2C 29>	(-28,6)	(2,19)	(1,100)	(5,10)	(-21,22)	(-32,6)	(-4,13)	(-5,6)	(-26,8)	(-14,5)	(-23,7)	(-1,39)	(-30,7)	(-2,15)	(-12,1)	(-27,11)	
L2C 30>	(8,4)	(-39,3)	(-29,11)	(-28,14)	(11,1)	(-32,8)	(3,13)	(-1,39)	(10,7)	(-5,14)	(1,126)	(-21,11)	(-8,4)	(-35,8)	(4,2)	(-7,4)	
L2C 31>	(-38,1)	(2,22)	(-6,6)	(-1,23)	(-27,20)	(-5,7)	(6,9)	(-3,9)	(4,8)	(-4,11)	(1,93)	(7,3)	(-15,5)	(-32,5)	(-36,3)	(8,3)	
L2C 32>	(2,17)	(1,111)	(-22,17)	(-30,5)	(0,4)	(-3,13)	(-9,8)	(-6,1)	(-34,5)	(-11,7)	(-31,15)	(-28,3)	(-1,27)	(-4,8)	(-52,2)	(5,2)	
L2C 33>	(1,131)	(11,35)	(-2,10)	(-19,1)	(-56,3)	(-1,21)	(3,21)	(2,23)	(-27,8)	(17,3)	(4,5)	(-24,2)	(-34,9)	(-22,7)	(-5,12)	(16,5)	
L2C 34>	(1,80)	(2,25)	(22,1)	(-1,18)	(-31,14)	(6,3)	(4,10)	(-33,21)	(-4,6)	(-29,9)	(-3,7)	(-30,3)	(8,8)	(-32,5)	(-48,3)	(-9,5)	
L2C 35>	(7,3)	(1,64)	(2,31)	(-12,5)	(-17,1)	(3,13)	(-5,8)	(4,8)	(-7,3)	(-21,3)	(-34,9)	(-16,8)	(-35,3)	(-2,5)	(-27,6)	(-13,3)	
L2C 36>	(1,60)	(-3,4)	(-1,42)	(-35,11)	(2,17)	(13,3)	(-29,3)	(-38,4)	(-26,4)	(-31,6)	(-34,4)	(-18,3)	(7,3)	(6,7)	(-5,11)	(-16,1)	
L2C 37>	(1,71)	(-1,12)	(-8,4)	(-4,5)	(2,27)	(-38,1)	(-36,5)	(-39,14)	(-30,5)	(11,3)	(0,7)	(-32,8)	(-7,12)	(-12,5)	(-29,2)	(14,2)	
L2C 38>	(-39,5)	(2,18)	(-48,7)	(1,45)	(-36,5)	(0,7)	(-5,3)	(-37,4)	(-7,4)	(3,3)	(-38,3)	(-22,2)	(-31,1)	(-30,1)	(-1,13)	(-17,8)	
L2C 39>	(1,46)	(-34,6)	(2,14)	(17,9)	(-3,6)	(-41,6)	(-1,16)	(10,2)	(-39,14)	(-38,7)	(-8,1)	(16,4)	(-18,2)	(-22,6)	(-32,5)	(-20,1)	
L2C 40>	(3,13)	(-3,4)	(1,91)	(-37,2)	(-15,3)	(-19,3)	(2,16)	(-43,3)	(-5,7)	(-2,4)	(-13,5)	(-1,23)	(-42,5)	(-33,3)	(-34,2)	(11,4)	
L2C 41>	(-44,5)	(1,104)	(-1,16)	(2,20)	(-40,1)	(-20,2)	(-43,4)	(-16,5)	(-53,3)	(-5,5)	(-27,5)	(-2,3)	(-35,4)	(7,2)	(0,16)	(3,2)	
L2C 42>	(1,45)	(4,3)	(-29,4)	(-1,11)	(-41,3)	(-32,1)	(-27,3)	(-5,4)	(0,12)	(-21,2)	(2,13)	(-40,3)	(-43,5)	(10,3)	(-23,4)	(-42,3)	
L2C 43>	(2,37)	(-9,1)	(1,36)	(-45,3)	(-12,4)	(-39,5)	(-41,47)	(-42,6)	(-50,4)	(4,3)	(-52,2)	(-20,2)	(-1,13)	(-33,3)	(-22,5)	(-34,10)	
L2C 44>	(-55,3)	(2,6)	(-5,5)	(-46,1)	(-35,2)	(1,30)	(-44,5)	(-9,3)	(0,16)	(-38,3)	(-1,11)	(-42,4)	(-49,6)	(-2,8)	(-21,3)	(-33,7)	
L2C 45>	(-45,4)	(1,26)	(2,13)	(-41,6)	(-52,1)	(-18,2)	(-38,3)	(-39,2)	(-40,3)	(-22,3)	(-2,6)	(-15,3)	(-60,3)	(-29,2)	(-4,4)	(-3,4)	
L2C 46>	(1,34)	(-38,2)	(-43,2)	(-21,2)	(-3,2)	(-39,3)	(-1,6)	(-45,9)	(-52,1)	(-16,5)	(2,12)	(-54,2)	(10,1)	(-42,3)	(-47,7)	(4,5)	
L2C 47>	(-32,4)	(1,29)	(-50,5)	(-16,2)	(-1,9)	(-24,2)	(2,8)	(-52,2)	(3,1)	(-56,1)	(-21,2)	(-4,3)	(-48,8)	(-41,4)	(10,1)	(-25,4)	
L2C 48>	(2,9)	(1,42)	(-51,15)	(-1,13)	(-50,8)	(-38,2)	(-42,5)	(-47,22)	(-48,18)	(-54,11)	(-24,2)	(-44,3)	(-26,1)	(-49,6)	(4,4)	(-3,4)	
L2C 49>	(-48,14)	(1,44)	(-53,5)	(-18,4)	(2,8)	(-1,1)	(-51,6)	(5,9)	(-52,2)	(-41,6)	(-50,10)	(-3,1)	(-54,1)	(-46,2)	(-12,2)	(-36,1)	
L2C 50>	(1,28)	(7,2)	(-36,2)	(-49,3)	(-51,7)	(-13,3)	(-6,4)	(-33,1)	(-17,6)	(-52,7)	(-40,1)	(2,11)	(-31,2)	(-25,2)	(-58,2)	(-11,2)	
L2C 51>	(-2,7)	(-53,10)	(-47,3)	(-50,7)	(1,16)	(-52,6)	(3,1)	(2,6)	(-42,2)	(-56,2)	(-15,3)	(-54,3)	(-13,2)	(-36,3)	(-4,3)	(-1,19)	
L2C 52>	(-50,9)	(-22,3)	(-4,1)	(-49,5)	(1,18)	(2,4)	(3,3)	(-25,2)	(-14,7)	(-37,2)	(-47,2)	(-1,11)	(-53,8)	(-13,9)	(-2,1)	(-35,1)	
L2C 53>	(-18,1)	(1,10)	(-55,2)	(-53,2)	(-52,10)	(-47,2)	(-2,2)	(-1,5)	(-22,1)	(-42,1)	(-54,3)	(-41,1)	(-45,1)	(2,6)	(-7,3)	(-6,1)	
L2C 54>	(-28,3)	(-42,1)	(-61,1)	(-46,4)	(-43,2)	(-2,2)	(1,11)	(-1,10)	(-4,2)	(-53,3)	(-11,2)	(-21,1)	(-55,3)	(-45,2)	(-10,1)	(-54,1)	
L2C 55>	(-51,4)	(-41,6)	(-57,7)	(-47,3)	(-45,1)	(-44,6)	(1,12)	(-56,4)	(-3,3)	(-25,1)	(-1,11)	(-7,1)	(-14,1)	(-46,1)	(-23,2)	(0,15)	
L2C 56>	(-5,2)	(-41,3)	(1,9)	(-22,1)	(-24,1)	(-17,2)	(-56,1)	(-48,1)	(0,1)	(-8,1)	(-7,1)	(-54,1)	(-37,1)	(-26,1)	(-47,1)	(3,1)	
L2C 57>	(-41,2)	(-40,1)	(-1,3)	(-26,2)	(0,1)	(-2,2)	(-39,3)	(-22,1)	(-47,1)	(1,4)	(-30,1)	(-62,1)	(-43,1)	(-8,1)	(-28,1)	(-16,2)	
L2C 58>	(1,3)	(-1,1)	(-18,1)	(3,3)	(-32,1)	(-22,2)	(-4,2)	(-40,1)	(-5,1)	(-33,1)	(-23,1)	(-36,1)	(-13,1)	(-17,2)	(-58,1)	(-54,1)	
L2C 59>	(-24,2)	(-22,1)	(-58,1)	(-8,1)	(-32,1)	(-1,6)	(-50,1)	(-25,1)	(-16,1)	(1,1)	(-7,2)	(-63,1)	(-14,1)	(-2,1)	(-40,1)	(2,1)	
L2C 60>	(-5,1)	(-26,2)	(-50,2)	(-12,1)	(-18,1)	(-1,1)	(-51,1)	(-16,1)	(1,0)	(1,0)	(1,0)	(1,0)	(1,0)	(1,0)	(1,0)	(1,0)	
L2C 61>	(1,1)	(-60,1)	(-11,1)	(-51,1)	(-31,1)	(-10,1)	(-30,1)	(1,0)	(1,0)	(1,0)	(1,0)	(1,0)	(1,0)	(1,0)	(1,0)	(1,0)	
L2C 62>	(1,2)	(-60,1)	(-29,1)	(-58,1)	(-55,1)	(-6,1)	(1,0)	(1,0)	(1,0)	(1,0)	(1,0)	(1,0)	(1,0)	(1,0)	(1,0)	(1,0)	
L2C 63>	(-34,1)	(1,0)	(1,0)	(1,0)	(1,0)	(1,0)	(1,0)	(1,0)	(1,0)	(1,0)	(1,0)	(1,0)	(1,0)	(1,0)	(1,0)	(1,0)	

DRAM Statistics
 CHANNEL 0
 RQ ROW_BUFFER_HIT:     110139  ROW_BUFFER_MISS:     243643
 DBUS_CONGESTED:     205481
 WQ ROW_BUFFER_HIT:       4622  ROW_BUFFER_MISS:      33368  FULL:          0

 AVG_CONGESTED_CYCLE: 6
