
*** ChampSim Multicore Out-of-Order Simulator ***

Warmup Instructions: 1000000
Simulation Instructions: 10000000
Number of CPUs: 4
LLC sets: 8192
LLC ways: 16
Off-chip DRAM Size: 4096 MB Channels: 1 Width: 64-bit Data Rate: 3200 MT/s

CPU 0 runs /home/virtualcse/Data-Prefetching/ChampSim/dpc3_traces/603.bwaves_s-1080B.champsimtrace.xz
CPU 1 runs /home/virtualcse/Data-Prefetching/ChampSim/dpc3_traces/600.perlbench_s-1273B.champsimtrace.xz
CPU 2 runs /home/virtualcse/Data-Prefetching/ChampSim/dpc3_traces/607.cactuBSSN_s-2421B.champsimtrace.xz
CPU 3 runs /home/virtualcse/Data-Prefetching/ChampSim/dpc3_traces/654.roms_s-1070B.champsimtrace.xz
Ultra pref. initializing...
Ultra pref. initialized
Ultra pref. initializing...
Ultra pref. initialized
Ultra pref. initializing...
Ultra pref. initialized
Ultra pref. initializing...
Ultra pref. initialized
Ultra pref. initializing...
Ultra pref. initialized
Ultra pref. initializing...
Ultra pref. initialized
Ultra pref. initializing...
Ultra pref. initialized
Ultra pref. initializing...
Ultra pref. initialized

Warmup complete CPU 0 instructions: 1400053 cycles: 481376 (Simulation time: 0 hr 0 min 10 sec) 
Warmup complete CPU 1 instructions: 1246636 cycles: 481376 (Simulation time: 0 hr 0 min 10 sec) 
Warmup complete CPU 2 instructions: 1000003 cycles: 481376 (Simulation time: 0 hr 0 min 10 sec) 
Warmup complete CPU 3 instructions: 1035590 cycles: 481375 (Simulation time: 0 hr 0 min 10 sec) 

Heartbeat CPU 0 instructions: 10000001 cycles: 4898518 heartbeat IPC: 2.04143 cumulative IPC: 1.94695 (Simulation time: 0 hr 0 min 56 sec) 
Finished CPU 0 instructions: 10000002 cycles: 5228373 cumulative IPC: 1.91264 (Simulation time: 0 hr 1 min 4 sec) 
Heartbeat CPU 1 instructions: 10000000 cycles: 5720818 heartbeat IPC: 1.748 cumulative IPC: 1.67067 (Simulation time: 0 hr 1 min 5 sec) 
Finished CPU 1 instructions: 10000000 cycles: 6022097 cumulative IPC: 1.66055 (Simulation time: 0 hr 1 min 12 sec) 
Heartbeat CPU 2 instructions: 10000001 cycles: 8504884 heartbeat IPC: 1.1758 cumulative IPC: 1.1217 (Simulation time: 0 hr 1 min 31 sec) 
Finished CPU 2 instructions: 10000000 cycles: 9008573 cumulative IPC: 1.11005 (Simulation time: 0 hr 1 min 40 sec) 
Heartbeat CPU 0 instructions: 20000003 cycles: 10315340 heartbeat IPC: 1.8461 cumulative IPC: 1.8914 (Simulation time: 0 hr 1 min 48 sec) 
Heartbeat CPU 3 instructions: 10000002 cycles: 11269404 heartbeat IPC: 0.887359 cumulative IPC: 0.830959 (Simulation time: 0 hr 1 min 57 sec) 
Heartbeat CPU 1 instructions: 20000000 cycles: 12225242 heartbeat IPC: 1.53742 cumulative IPC: 1.59686 (Simulation time: 0 hr 2 min 6 sec) 
Finished CPU 3 instructions: 10000003 cycles: 11954775 cumulative IPC: 0.836486 (Simulation time: 0 hr 2 min 8 sec) 

CPU 0 Branch Prediction Accuracy: 93.777% MPKI: 7.19974 Average ROB Occupancy at Mispredict: 83.4719

CPU 1 Branch Prediction Accuracy: 98.1389% MPKI: 2.32448 Average ROB Occupancy at Mispredict: 107.371

CPU 2 Branch Prediction Accuracy: 99.6616% MPKI: 0.0232347 Average ROB Occupancy at Mispredict: 18.0548

CPU 3 Branch Prediction Accuracy: 99.8968% MPKI: 0.101539 Average ROB Occupancy at Mispredict: 349.579

ChampSim completed all CPUs

Total Simulation Statistics (not including warmup)

CPU 0 cumulative IPC: 1.94074 instructions: 23201089 cycles: 11954774
L1D TOTAL     ACCESS:    5393460  HIT:    5321216  MISS:      72244
L1D LOAD      ACCESS:    2482091  HIT:    2481726  MISS:        365
L1D RFO       ACCESS:    1343256  HIT:    1281989  MISS:      61267
L1D PREFETCH  ACCESS:    1568113  HIT:    1557501  MISS:      10612
L1D WRITEBACK ACCESS:          0  HIT:          0  MISS:          0
L1I TOTAL     ACCESS:    1190583  HIT:    1190579  MISS:          4
L1I LOAD      ACCESS:    1190583  HIT:    1190579  MISS:          4
L1I RFO       ACCESS:          0  HIT:          0  MISS:          0
L1I PREFETCH  ACCESS:          0  HIT:          0  MISS:          0
L1I WRITEBACK ACCESS:          0  HIT:          0  MISS:          0
L2C TOTAL     ACCESS:     158581  HIT:      86718  MISS:      71863
L2C LOAD      ACCESS:        322  HIT:        199  MISS:        123
L2C RFO       ACCESS:      60207  HIT:       5438  MISS:      54769
L2C PREFETCH  ACCESS:      33114  HIT:      16143  MISS:      16971
L2C WRITEBACK ACCESS:      64938  HIT:      64938  MISS:          0

L1D -512>	(1,125)	(4,13)	(8,1)	(-2,2)	(2,88)	(0,32)	(5,8)	(-4,1)	(50,2)	(3,25)	(-1,1)	(17,1)	(-46,1)	(25,0)	(30,0)	(168,0)	
L1D -511>	(5,1)	(6,1)	(1,8)	(0,1)	(2,2)	(1,0)	(1,0)	(1,0)	(1,0)	(1,0)	(1,0)	(1,0)	(1,0)	(1,0)	(1,0)	(1,0)	
L1D -510>	(1,2)	(2,1)	(0,1)	(1,0)	(1,0)	(1,0)	(1,0)	(1,0)	(1,0)	(1,0)	(1,0)	(1,0)	(1,0)	(1,0)	(1,0)	(1,0)	
L1D -509>	(1,0)	(1,0)	(1,0)	(1,0)	(1,0)	(1,0)	(1,0)	(1,0)	(1,0)	(1,0)	(1,0)	(1,0)	(1,0)	(1,0)	(1,0)	(1,0)	
L1D -508>	(1,0)	(1,0)	(1,0)	(1,0)	(1,0)	(1,0)	(1,0)	(1,0)	(1,0)	(1,0)	(1,0)	(1,0)	(1,0)	(1,0)	(1,0)	(1,0)	
L1D -507>	(1,0)	(1,0)	(1,0)	(1,0)	(1,0)	(1,0)	(1,0)	(1,0)	(1,0)	(1,0)	(1,0)	(1,0)	(1,0)	(1,0)	(1,0)	(1,0)	
L1D -506>	(1,0)	(1,0)	(1,0)	(1,0)	(1,0)	(1,0)	(1,0)	(1,0)	(1,0)	(1,0)	(1,0)	(1,0)	(1,0)	(1,0)	(1,0)	(1,0)	
L1D -505>	(2,1)	(1,0)	(1,0)	(1,0)	(1,0)	(1,0)	(1,0)	(1,0)	(1,0)	(1,0)	(1,0)	(1,0)	(1,0)	(1,0)	(1,0)	(1,0)	
L1D -504>	(1,0)	(1,0)	(1,0)	(1,0)	(1,0)	(1,0)	(1,0)	(1,0)	(1,0)	(1,0)	(1,0)	(1,0)	(1,0)	(1,0)	(1,0)	(1,0)	
L1D -503>	(1,1)	(1,0)	(1,0)	(1,0)	(1,0)	(1,0)	(1,0)	(1,0)	(1,0)	(1,0)	(1,0)	(1,0)	(1,0)	(1,0)	(1,0)	(1,0)	
L1D -502>	(1,0)	(1,0)	(1,0)	(1,0)	(1,0)	(1,0)	(1,0)	(1,0)	(1,0)	(1,0)	(1,0)	(1,0)	(1,0)	(1,0)	(1,0)	(1,0)	
L1D -501>	(1,0)	(1,0)	(1,0)	(1,0)	(1,0)	(1,0)	(1,0)	(1,0)	(1,0)	(1,0)	(1,0)	(1,0)	(1,0)	(1,0)	(1,0)	(1,0)	
L1D -500>	(1,0)	(1,0)	(1,0)	(1,0)	(1,0)	(1,0)	(1,0)	(1,0)	(1,0)	(1,0)	(1,0)	(1,0)	(1,0)	(1,0)	(1,0)	(1,0)	
L1D -499>	(1,0)	(1,0)	(1,0)	(1,0)	(1,0)	(1,0)	(1,0)	(1,0)	(1,0)	(1,0)	(1,0)	(1,0)	(1,0)	(1,0)	(1,0)	(1,0)	
L1D -498>	(1,0)	(1,0)	(1,0)	(1,0)	(1,0)	(1,0)	(1,0)	(1,0)	(1,0)	(1,0)	(1,0)	(1,0)	(1,0)	(1,0)	(1,0)	(1,0)	
L1D -497>	(1,0)	(1,0)	(1,0)	(1,0)	(1,0)	(1,0)	(1,0)	(1,0)	(1,0)	(1,0)	(1,0)	(1,0)	(1,0)	(1,0)	(1,0)	(1,0)	
L1D -496>	(1,0)	(1,0)	(1,0)	(1,0)	(1,0)	(1,0)	(1,0)	(1,0)	(1,0)	(1,0)	(1,0)	(1,0)	(1,0)	(1,0)	(1,0)	(1,0)	
L1D -495>	(2,1)	(1,0)	(1,0)	(1,0)	(1,0)	(1,0)	(1,0)	(1,0)	(1,0)	(1,0)	(1,0)	(1,0)	(1,0)	(1,0)	(1,0)	(1,0)	
L1D -494>	(1,0)	(1,0)	(1,0)	(1,0)	(1,0)	(1,0)	(1,0)	(1,0)	(1,0)	(1,0)	(1,0)	(1,0)	(1,0)	(1,0)	(1,0)	(1,0)	
L1D -493>	(1,0)	(1,0)	(1,0)	(1,0)	(1,0)	(1,0)	(1,0)	(1,0)	(1,0)	(1,0)	(1,0)	(1,0)	(1,0)	(1,0)	(1,0)	(1,0)	
L1D -492>	(1,0)	(1,0)	(1,0)	(1,0)	(1,0)	(1,0)	(1,0)	(1,0)	(1,0)	(1,0)	(1,0)	(1,0)	(1,0)	(1,0)	(1,0)	(1,0)	
L1D -491>	(1,0)	(1,0)	(1,0)	(1,0)	(1,0)	(1,0)	(1,0)	(1,0)	(1,0)	(1,0)	(1,0)	(1,0)	(1,0)	(1,0)	(1,0)	(1,0)	
L1D -490>	(0,1)	(1,0)	(1,0)	(1,0)	(1,0)	(1,0)	(1,0)	(1,0)	(1,0)	(1,0)	(1,0)	(1,0)	(1,0)	(1,0)	(1,0)	(1,0)	
L1D -489>	(1,0)	(1,0)	(1,0)	(1,0)	(1,0)	(1,0)	(1,0)	(1,0)	(1,0)	(1,0)	(1,0)	(1,0)	(1,0)	(1,0)	(1,0)	(1,0)	
L1D -488>	(1,0)	(1,0)	(1,0)	(1,0)	(1,0)	(1,0)	(1,0)	(1,0)	(1,0)	(1,0)	(1,0)	(1,0)	(1,0)	(1,0)	(1,0)	(1,0)	
L1D -487>	(1,0)	(1,0)	(1,0)	(1,0)	(1,0)	(1,0)	(1,0)	(1,0)	(1,0)	(1,0)	(1,0)	(1,0)	(1,0)	(1,0)	(1,0)	(1,0)	
L1D -486>	(1,0)	(1,0)	(1,0)	(1,0)	(1,0)	(1,0)	(1,0)	(1,0)	(1,0)	(1,0)	(1,0)	(1,0)	(1,0)	(1,0)	(1,0)	(1,0)	
L1D -485>	(1,0)	(1,0)	(1,0)	(1,0)	(1,0)	(1,0)	(1,0)	(1,0)	(1,0)	(1,0)	(1,0)	(1,0)	(1,0)	(1,0)	(1,0)	(1,0)	
L1D -484>	(1,0)	(1,0)	(1,0)	(1,0)	(1,0)	(1,0)	(1,0)	(1,0)	(1,0)	(1,0)	(1,0)	(1,0)	(1,0)	(1,0)	(1,0)	(1,0)	
L1D -483>	(1,0)	(1,0)	(1,0)	(1,0)	(1,0)	(1,0)	(1,0)	(1,0)	(1,0)	(1,0)	(1,0)	(1,0)	(1,0)	(1,0)	(1,0)	(1,0)	
L1D -482>	(1,0)	(1,0)	(1,0)	(1,0)	(1,0)	(1,0)	(1,0)	(1,0)	(1,0)	(1,0)	(1,0)	(1,0)	(1,0)	(1,0)	(1,0)	(1,0)	
L1D -481>	(1,0)	(1,0)	(1,0)	(1,0)	(1,0)	(1,0)	(1,0)	(1,0)	(1,0)	(1,0)	(1,0)	(1,0)	(1,0)	(1,0)	(1,0)	(1,0)	
L1D -480>	(1,0)	(1,0)	(1,0)	(1,0)	(1,0)	(1,0)	(1,0)	(1,0)	(1,0)	(1,0)	(1,0)	(1,0)	(1,0)	(1,0)	(1,0)	(1,0)	
L1D -479>	(1,0)	(1,0)	(1,0)	(1,0)	(1,0)	(1,0)	(1,0)	(1,0)	(1,0)	(1,0)	(1,0)	(1,0)	(1,0)	(1,0)	(1,0)	(1,0)	
L1D -478>	(1,0)	(1,0)	(1,0)	(1,0)	(1,0)	(1,0)	(1,0)	(1,0)	(1,0)	(1,0)	(1,0)	(1,0)	(1,0)	(1,0)	(1,0)	(1,0)	
L1D -477>	(1,0)	(1,0)	(1,0)	(1,0)	(1,0)	(1,0)	(1,0)	(1,0)	(1,0)	(1,0)	(1,0)	(1,0)	(1,0)	(1,0)	(1,0)	(1,0)	
L1D -476>	(1,0)	(1,0)	(1,0)	(1,0)	(1,0)	(1,0)	(1,0)	(1,0)	(1,0)	(1,0)	(1,0)	(1,0)	(1,0)	(1,0)	(1,0)	(1,0)	
L1D -475>	(1,0)	(1,0)	(1,0)	(1,0)	(1,0)	(1,0)	(1,0)	(1,0)	(1,0)	(1,0)	(1,0)	(1,0)	(1,0)	(1,0)	(1,0)	(1,0)	
L1D -474>	(1,0)	(1,0)	(1,0)	(1,0)	(1,0)	(1,0)	(1,0)	(1,0)	(1,0)	(1,0)	(1,0)	(1,0)	(1,0)	(1,0)	(1,0)	(1,0)	
L1D -473>	(1,0)	(1,0)	(1,0)	(1,0)	(1,0)	(1,0)	(1,0)	(1,0)	(1,0)	(1,0)	(1,0)	(1,0)	(1,0)	(1,0)	(1,0)	(1,0)	
L1D -472>	(2,1)	(1,0)	(1,0)	(1,0)	(1,0)	(1,0)	(1,0)	(1,0)	(1,0)	(1,0)	(1,0)	(1,0)	(1,0)	(1,0)	(1,0)	(1,0)	
L1D -471>	(1,0)	(1,0)	(1,0)	(1,0)	(1,0)	(1,0)	(1,0)	(1,0)	(1,0)	(1,0)	(1,0)	(1,0)	(1,0)	(1,0)	(1,0)	(1,0)	
L1D -470>	(2,1)	(1,0)	(1,0)	(1,0)	(1,0)	(1,0)	(1,0)	(1,0)	(1,0)	(1,0)	(1,0)	(1,0)	(1,0)	(1,0)	(1,0)	(1,0)	
L1D -469>	(1,0)	(1,0)	(1,0)	(1,0)	(1,0)	(1,0)	(1,0)	(1,0)	(1,0)	(1,0)	(1,0)	(1,0)	(1,0)	(1,0)	(1,0)	(1,0)	
L1D -468>	(3,1)	(1,0)	(1,0)	(1,0)	(1,0)	(1,0)	(1,0)	(1,0)	(1,0)	(1,0)	(1,0)	(1,0)	(1,0)	(1,0)	(1,0)	(1,0)	
L1D -467>	(1,1)	(1,0)	(1,0)	(1,0)	(1,0)	(1,0)	(1,0)	(1,0)	(1,0)	(1,0)	(1,0)	(1,0)	(1,0)	(1,0)	(1,0)	(1,0)	
L1D -466>	(1,0)	(1,0)	(1,0)	(1,0)	(1,0)	(1,0)	(1,0)	(1,0)	(1,0)	(1,0)	(1,0)	(1,0)	(1,0)	(1,0)	(1,0)	(1,0)	
L1D -465>	(2,1)	(1,0)	(1,0)	(1,0)	(1,0)	(1,0)	(1,0)	(1,0)	(1,0)	(1,0)	(1,0)	(1,0)	(1,0)	(1,0)	(1,0)	(1,0)	
L1D -464>	(1,0)	(1,0)	(1,0)	(1,0)	(1,0)	(1,0)	(1,0)	(1,0)	(1,0)	(1,0)	(1,0)	(1,0)	(1,0)	(1,0)	(1,0)	(1,0)	
L1D -463>	(1,0)	(1,0)	(1,0)	(1,0)	(1,0)	(1,0)	(1,0)	(1,0)	(1,0)	(1,0)	(1,0)	(1,0)	(1,0)	(1,0)	(1,0)	(1,0)	
L1D -462>	(1,0)	(1,0)	(1,0)	(1,0)	(1,0)	(1,0)	(1,0)	(1,0)	(1,0)	(1,0)	(1,0)	(1,0)	(1,0)	(1,0)	(1,0)	(1,0)	
L1D -461>	(6,2)	(1,0)	(1,0)	(1,0)	(1,0)	(1,0)	(1,0)	(1,0)	(1,0)	(1,0)	(1,0)	(1,0)	(1,0)	(1,0)	(1,0)	(1,0)	
L1D -460>	(1,0)	(1,0)	(1,0)	(1,0)	(1,0)	(1,0)	(1,0)	(1,0)	(1,0)	(1,0)	(1,0)	(1,0)	(1,0)	(1,0)	(1,0)	(1,0)	
L1D -459>	(4,1)	(1,1)	(1,0)	(1,0)	(1,0)	(1,0)	(1,0)	(1,0)	(1,0)	(1,0)	(1,0)	(1,0)	(1,0)	(1,0)	(1,0)	(1,0)	
L1D -458>	(450,1)	(331,1)	(-3,4)	(1,0)	(1,0)	(1,0)	(1,0)	(1,0)	(1,0)	(1,0)	(1,0)	(1,0)	(1,0)	(1,0)	(1,0)	(1,0)	
L1D -457>	(1,0)	(1,0)	(1,0)	(1,0)	(1,0)	(1,0)	(1,0)	(1,0)	(1,0)	(1,0)	(1,0)	(1,0)	(1,0)	(1,0)	(1,0)	(1,0)	
L1D -456>	(1,0)	(1,0)	(1,0)	(1,0)	(1,0)	(1,0)	(1,0)	(1,0)	(1,0)	(1,0)	(1,0)	(1,0)	(1,0)	(1,0)	(1,0)	(1,0)	
L1D -455>	(2,1)	(1,0)	(1,0)	(1,0)	(1,0)	(1,0)	(1,0)	(1,0)	(1,0)	(1,0)	(1,0)	(1,0)	(1,0)	(1,0)	(1,0)	(1,0)	
L1D -454>	(327,3)	(1,0)	(1,0)	(1,0)	(1,0)	(1,0)	(1,0)	(1,0)	(1,0)	(1,0)	(1,0)	(1,0)	(1,0)	(1,0)	(1,0)	(1,0)	
L1D -453>	(1,0)	(1,0)	(1,0)	(1,0)	(1,0)	(1,0)	(1,0)	(1,0)	(1,0)	(1,0)	(1,0)	(1,0)	(1,0)	(1,0)	(1,0)	(1,0)	
L1D -452>	(1,0)	(1,0)	(1,0)	(1,0)	(1,0)	(1,0)	(1,0)	(1,0)	(1,0)	(1,0)	(1,0)	(1,0)	(1,0)	(1,0)	(1,0)	(1,0)	
L1D -451>	(1,0)	(1,0)	(1,0)	(1,0)	(1,0)	(1,0)	(1,0)	(1,0)	(1,0)	(1,0)	(1,0)	(1,0)	(1,0)	(1,0)	(1,0)	(1,0)	
L1D -450>	(1,0)	(1,0)	(1,0)	(1,0)	(1,0)	(1,0)	(1,0)	(1,0)	(1,0)	(1,0)	(1,0)	(1,0)	(1,0)	(1,0)	(1,0)	(1,0)	
L1D -449>	(2,1)	(1,0)	(1,0)	(1,0)	(1,0)	(1,0)	(1,0)	(1,0)	(1,0)	(1,0)	(1,0)	(1,0)	(1,0)	(1,0)	(1,0)	(1,0)	
L1D -448>	(1,0)	(1,0)	(1,0)	(1,0)	(1,0)	(1,0)	(1,0)	(1,0)	(1,0)	(1,0)	(1,0)	(1,0)	(1,0)	(1,0)	(1,0)	(1,0)	
L1D -447>	(1,0)	(1,0)	(1,0)	(1,0)	(1,0)	(1,0)	(1,0)	(1,0)	(1,0)	(1,0)	(1,0)	(1,0)	(1,0)	(1,0)	(1,0)	(1,0)	
L1D -446>	(449,1)	(1,0)	(1,0)	(1,0)	(1,0)	(1,0)	(1,0)	(1,0)	(1,0)	(1,0)	(1,0)	(1,0)	(1,0)	(1,0)	(1,0)	(1,0)	
L1D -445>	(1,0)	(1,0)	(1,0)	(1,0)	(1,0)	(1,0)	(1,0)	(1,0)	(1,0)	(1,0)	(1,0)	(1,0)	(1,0)	(1,0)	(1,0)	(1,0)	
L1D -444>	(1,1)	(1,0)	(1,0)	(1,0)	(1,0)	(1,0)	(1,0)	(1,0)	(1,0)	(1,0)	(1,0)	(1,0)	(1,0)	(1,0)	(1,0)	(1,0)	
L1D -443>	(1,0)	(1,0)	(1,0)	(1,0)	(1,0)	(1,0)	(1,0)	(1,0)	(1,0)	(1,0)	(1,0)	(1,0)	(1,0)	(1,0)	(1,0)	(1,0)	
L1D -442>	(-1,1)	(1,0)	(1,0)	(1,0)	(1,0)	(1,0)	(1,0)	(1,0)	(1,0)	(1,0)	(1,0)	(1,0)	(1,0)	(1,0)	(1,0)	(1,0)	
L1D -441>	(-1,1)	(1,0)	(1,0)	(1,0)	(1,0)	(1,0)	(1,0)	(1,0)	(1,0)	(1,0)	(1,0)	(1,0)	(1,0)	(1,0)	(1,0)	(1,0)	
L1D -440>	(2,1)	(1,0)	(1,0)	(1,0)	(1,0)	(1,0)	(1,0)	(1,0)	(1,0)	(1,0)	(1,0)	(1,0)	(1,0)	(1,0)	(1,0)	(1,0)	
L1D -439>	(1,0)	(1,0)	(1,0)	(1,0)	(1,0)	(1,0)	(1,0)	(1,0)	(1,0)	(1,0)	(1,0)	(1,0)	(1,0)	(1,0)	(1,0)	(1,0)	
L1D -438>	(1,0)	(1,0)	(1,0)	(1,0)	(1,0)	(1,0)	(1,0)	(1,0)	(1,0)	(1,0)	(1,0)	(1,0)	(1,0)	(1,0)	(1,0)	(1,0)	
L1D -437>	(345,1)	(-2,1)	(1,0)	(1,0)	(1,0)	(1,0)	(1,0)	(1,0)	(1,0)	(1,0)	(1,0)	(1,0)	(1,0)	(1,0)	(1,0)	(1,0)	
L1D -436>	(436,1)	(1,0)	(1,0)	(1,0)	(1,0)	(1,0)	(1,0)	(1,0)	(1,0)	(1,0)	(1,0)	(1,0)	(1,0)	(1,0)	(1,0)	(1,0)	
L1D -435>	(1,0)	(1,0)	(1,0)	(1,0)	(1,0)	(1,0)	(1,0)	(1,0)	(1,0)	(1,0)	(1,0)	(1,0)	(1,0)	(1,0)	(1,0)	(1,0)	
L1D -434>	(1,6)	(1,0)	(1,0)	(1,0)	(1,0)	(1,0)	(1,0)	(1,0)	(1,0)	(1,0)	(1,0)	(1,0)	(1,0)	(1,0)	(1,0)	(1,0)	
L1D -433>	(1,7)	(1,0)	(1,0)	(1,0)	(1,0)	(1,0)	(1,0)	(1,0)	(1,0)	(1,0)	(1,0)	(1,0)	(1,0)	(1,0)	(1,0)	(1,0)	
L1D -432>	(1,0)	(1,0)	(1,0)	(1,0)	(1,0)	(1,0)	(1,0)	(1,0)	(1,0)	(1,0)	(1,0)	(1,0)	(1,0)	(1,0)	(1,0)	(1,0)	
L1D -431>	(1,0)	(1,0)	(1,0)	(1,0)	(1,0)	(1,0)	(1,0)	(1,0)	(1,0)	(1,0)	(1,0)	(1,0)	(1,0)	(1,0)	(1,0)	(1,0)	
L1D -430>	(1,0)	(1,0)	(1,0)	(1,0)	(1,0)	(1,0)	(1,0)	(1,0)	(1,0)	(1,0)	(1,0)	(1,0)	(1,0)	(1,0)	(1,0)	(1,0)	
L1D -429>	(4,1)	(1,0)	(1,0)	(1,0)	(1,0)	(1,0)	(1,0)	(1,0)	(1,0)	(1,0)	(1,0)	(1,0)	(1,0)	(1,0)	(1,0)	(1,0)	
L1D -428>	(-1,3)	(471,81)	(1,0)	(1,0)	(1,0)	(1,0)	(1,0)	(1,0)	(1,0)	(1,0)	(1,0)	(1,0)	(1,0)	(1,0)	(1,0)	(1,0)	
L1D -427>	(1,15)	(-1,3)	(-14,1)	(1,0)	(1,0)	(1,0)	(1,0)	(1,0)	(1,0)	(1,0)	(1,0)	(1,0)	(1,0)	(1,0)	(1,0)	(1,0)	
L1D -426>	(-1,46)	(1,33)	(1,0)	(1,0)	(1,0)	(1,0)	(1,0)	(1,0)	(1,0)	(1,0)	(1,0)	(1,0)	(1,0)	(1,0)	(1,0)	(1,0)	
L1D -425>	(-1,74)	(1,0)	(1,0)	(1,0)	(1,0)	(1,0)	(1,0)	(1,0)	(1,0)	(1,0)	(1,0)	(1,0)	(1,0)	(1,0)	(1,0)	(1,0)	
L1D -424>	(1,2)	(-1,1)	(1,0)	(1,0)	(1,0)	(1,0)	(1,0)	(1,0)	(1,0)	(1,0)	(1,0)	(1,0)	(1,0)	(1,0)	(1,0)	(1,0)	
L1D -423>	(215,10)	(213,1)	(-1,1)	(1,0)	(1,0)	(1,0)	(1,0)	(1,0)	(1,0)	(1,0)	(1,0)	(1,0)	(1,0)	(1,0)	(1,0)	(1,0)	
L1D -422>	(1,4)	(-1,12)	(215,23)	(213,7)	(214,32)	(212,1)	(222,2)	(216,1)	(1,0)	(1,0)	(1,0)	(1,0)	(1,0)	(1,0)	(1,0)	(1,0)	
L1D -421>	(-1,120)	(213,8)	(214,11)	(1,0)	(1,0)	(1,0)	(1,0)	(1,0)	(1,0)	(1,0)	(1,0)	(1,0)	(1,0)	(1,0)	(1,0)	(1,0)	
L1D -420>	(215,1)	(2,1)	(1,0)	(1,0)	(1,0)	(1,0)	(1,0)	(1,0)	(1,0)	(1,0)	(1,0)	(1,0)	(1,0)	(1,0)	(1,0)	(1,0)	
L1D -419>	(1,0)	(1,0)	(1,0)	(1,0)	(1,0)	(1,0)	(1,0)	(1,0)	(1,0)	(1,0)	(1,0)	(1,0)	(1,0)	(1,0)	(1,0)	(1,0)	
L1D -418>	(3,90)	(4,1)	(1,0)	(1,0)	(1,0)	(1,0)	(1,0)	(1,0)	(1,0)	(1,0)	(1,0)	(1,0)	(1,0)	(1,0)	(1,0)	(1,0)	
L1D -417>	(1,0)	(1,0)	(1,0)	(1,0)	(1,0)	(1,0)	(1,0)	(1,0)	(1,0)	(1,0)	(1,0)	(1,0)	(1,0)	(1,0)	(1,0)	(1,0)	
L1D -416>	(3,1)	(1,0)	(1,0)	(1,0)	(1,0)	(1,0)	(1,0)	(1,0)	(1,0)	(1,0)	(1,0)	(1,0)	(1,0)	(1,0)	(1,0)	(1,0)	
L1D -415>	(1,81)	(-3,1)	(-1,0)	(1,0)	(1,0)	(1,0)	(1,0)	(1,0)	(1,0)	(1,0)	(1,0)	(1,0)	(1,0)	(1,0)	(1,0)	(1,0)	
L1D -414>	(1,92)	(1,0)	(1,0)	(1,0)	(1,0)	(1,0)	(1,0)	(1,0)	(1,0)	(1,0)	(1,0)	(1,0)	(1,0)	(1,0)	(1,0)	(1,0)	
L1D -413>	(1,109)	(-1,1)	(-5,1)	(1,0)	(1,0)	(1,0)	(1,0)	(1,0)	(1,0)	(1,0)	(1,0)	(1,0)	(1,0)	(1,0)	(1,0)	(1,0)	
L1D -412>	(-1,2)	(1,0)	(1,0)	(1,0)	(1,0)	(1,0)	(1,0)	(1,0)	(1,0)	(1,0)	(1,0)	(1,0)	(1,0)	(1,0)	(1,0)	(1,0)	
L1D -411>	(-1,1)	(1,0)	(1,0)	(1,0)	(1,0)	(1,0)	(1,0)	(1,0)	(1,0)	(1,0)	(1,0)	(1,0)	(1,0)	(1,0)	(1,0)	(1,0)	
L1D -410>	(1,0)	(1,0)	(1,0)	(1,0)	(1,0)	(1,0)	(1,0)	(1,0)	(1,0)	(1,0)	(1,0)	(1,0)	(1,0)	(1,0)	(1,0)	(1,0)	
L1D -409>	(0,1)	(2,1)	(1,0)	(1,0)	(1,0)	(1,0)	(1,0)	(1,0)	(1,0)	(1,0)	(1,0)	(1,0)	(1,0)	(1,0)	(1,0)	(1,0)	
L1D -408>	(1,0)	(1,0)	(1,0)	(1,0)	(1,0)	(1,0)	(1,0)	(1,0)	(1,0)	(1,0)	(1,0)	(1,0)	(1,0)	(1,0)	(1,0)	(1,0)	
L1D -407>	(1,0)	(1,0)	(1,0)	(1,0)	(1,0)	(1,0)	(1,0)	(1,0)	(1,0)	(1,0)	(1,0)	(1,0)	(1,0)	(1,0)	(1,0)	(1,0)	
L1D -406>	(458,1)	(1,0)	(1,0)	(1,0)	(1,0)	(1,0)	(1,0)	(1,0)	(1,0)	(1,0)	(1,0)	(1,0)	(1,0)	(1,0)	(1,0)	(1,0)	
L1D -405>	(165,7)	(181,1)	(91,2)	(365,2)	(345,3)	(1,0)	(1,0)	(1,0)	(1,0)	(1,0)	(1,0)	(1,0)	(1,0)	(1,0)	(1,0)	(1,0)	
L1D -404>	(1,0)	(1,0)	(1,0)	(1,0)	(1,0)	(1,0)	(1,0)	(1,0)	(1,0)	(1,0)	(1,0)	(1,0)	(1,0)	(1,0)	(1,0)	(1,0)	
L1D -403>	(1,0)	(1,0)	(1,0)	(1,0)	(1,0)	(1,0)	(1,0)	(1,0)	(1,0)	(1,0)	(1,0)	(1,0)	(1,0)	(1,0)	(1,0)	(1,0)	
L1D -402>	(0,1)	(400,1)	(388,22)	(-42,6)	(1,0)	(1,0)	(1,0)	(1,0)	(1,0)	(1,0)	(1,0)	(1,0)	(1,0)	(1,0)	(1,0)	(1,0)	
L1D -401>	(1,0)	(1,0)	(1,0)	(1,0)	(1,0)	(1,0)	(1,0)	(1,0)	(1,0)	(1,0)	(1,0)	(1,0)	(1,0)	(1,0)	(1,0)	(1,0)	
L1D -400>	(0,1)	(134,1)	(388,1)	(3,1)	(2,1)	(1,0)	(1,0)	(1,0)	(1,0)	(1,0)	(1,0)	(1,0)	(1,0)	(1,0)	(1,0)	(1,0)	
L1D -399>	(365,2)	(1,0)	(1,0)	(1,0)	(1,0)	(1,0)	(1,0)	(1,0)	(1,0)	(1,0)	(1,0)	(1,0)	(1,0)	(1,0)	(1,0)	(1,0)	
L1D -398>	(0,2)	(1,0)	(1,0)	(1,0)	(1,0)	(1,0)	(1,0)	(1,0)	(1,0)	(1,0)	(1,0)	(1,0)	(1,0)	(1,0)	(1,0)	(1,0)	
L1D -397>	(9,1)	(1,0)	(1,0)	(1,0)	(1,0)	(1,0)	(1,0)	(1,0)	(1,0)	(1,0)	(1,0)	(1,0)	(1,0)	(1,0)	(1,0)	(1,0)	
L1D -396>	(0,3)	(148,2)	(388,2)	(1,0)	(1,0)	(1,0)	(1,0)	(1,0)	(1,0)	(1,0)	(1,0)	(1,0)	(1,0)	(1,0)	(1,0)	(1,0)	
L1D -395>	(397,33)	(24,1)	(9,2)	(1,0)	(1,0)	(1,0)	(1,0)	(1,0)	(1,0)	(1,0)	(1,0)	(1,0)	(1,0)	(1,0)	(1,0)	(1,0)	
L1D -394>	(1,0)	(1,0)	(1,0)	(1,0)	(1,0)	(1,0)	(1,0)	(1,0)	(1,0)	(1,0)	(1,0)	(1,0)	(1,0)	(1,0)	(1,0)	(1,0)	
L1D -393>	(8,30)	(1,0)	(1,0)	(1,0)	(1,0)	(1,0)	(1,0)	(1,0)	(1,0)	(1,0)	(1,0)	(1,0)	(1,0)	(1,0)	(1,0)	(1,0)	
L1D -392>	(70,19)	(0,2)	(4,1)	(2,3)	(1,0)	(1,0)	(1,0)	(1,0)	(1,0)	(1,0)	(1,0)	(1,0)	(1,0)	(1,0)	(1,0)	(1,0)	
L1D -391>	(20,71)	(-4,0)	(-1,0)	(1,0)	(1,0)	(1,0)	(1,0)	(1,0)	(1,0)	(1,0)	(1,0)	(1,0)	(1,0)	(1,0)	(1,0)	(1,0)	
L1D -390>	(26,48)	(0,2)	(2,1)	(-2,3)	(1,0)	(1,0)	(1,0)	(1,0)	(1,0)	(1,0)	(1,0)	(1,0)	(1,0)	(1,0)	(1,0)	(1,0)	
L1D -389>	(-1,1)	(1,0)	(1,0)	(1,0)	(1,0)	(1,0)	(1,0)	(1,0)	(1,0)	(1,0)	(1,0)	(1,0)	(1,0)	(1,0)	(1,0)	(1,0)	
L1D -388>	(148,5)	(267,12)	(0,1)	(-1,1)	(1,0)	(1,0)	(1,0)	(1,0)	(1,0)	(1,0)	(1,0)	(1,0)	(1,0)	(1,0)	(1,0)	(1,0)	
L1D -387>	(3,1)	(1,0)	(1,0)	(1,0)	(1,0)	(1,0)	(1,0)	(1,0)	(1,0)	(1,0)	(1,0)	(1,0)	(1,0)	(1,0)	(1,0)	(1,0)	
L1D -386>	(246,26)	(0,7)	(1,0)	(1,0)	(1,0)	(1,0)	(1,0)	(1,0)	(1,0)	(1,0)	(1,0)	(1,0)	(1,0)	(1,0)	(1,0)	(1,0)	
L1D -385>	(2,1)	(-12,2)	(15,1)	(1,1)	(1,0)	(1,0)	(1,0)	(1,0)	(1,0)	(1,0)	(1,0)	(1,0)	(1,0)	(1,0)	(1,0)	(1,0)	
L1D -384>	(0,2)	(-1,1)	(221,1)	(2,1)	(1,0)	(1,0)	(1,0)	(1,0)	(1,0)	(1,0)	(1,0)	(1,0)	(1,0)	(1,0)	(1,0)	(1,0)	
L1D -383>	(1,0)	(1,0)	(1,0)	(1,0)	(1,0)	(1,0)	(1,0)	(1,0)	(1,0)	(1,0)	(1,0)	(1,0)	(1,0)	(1,0)	(1,0)	(1,0)	
L1D -382>	(0,2)	(30,2)	(-1,1)	(1,0)	(1,0)	(1,0)	(1,0)	(1,0)	(1,0)	(1,0)	(1,0)	(1,0)	(1,0)	(1,0)	(1,0)	(1,0)	
L1D -381>	(1,0)	(1,0)	(1,0)	(1,0)	(1,0)	(1,0)	(1,0)	(1,0)	(1,0)	(1,0)	(1,0)	(1,0)	(1,0)	(1,0)	(1,0)	(1,0)	
L1D -380>	(294,2)	(-1,1)	(1,0)	(1,0)	(1,0)	(1,0)	(1,0)	(1,0)	(1,0)	(1,0)	(1,0)	(1,0)	(1,0)	(1,0)	(1,0)	(1,0)	
L1D -379>	(1,0)	(1,0)	(1,0)	(1,0)	(1,0)	(1,0)	(1,0)	(1,0)	(1,0)	(1,0)	(1,0)	(1,0)	(1,0)	(1,0)	(1,0)	(1,0)	
L1D -378>	(0,1)	(1,0)	(1,0)	(1,0)	(1,0)	(1,0)	(1,0)	(1,0)	(1,0)	(1,0)	(1,0)	(1,0)	(1,0)	(1,0)	(1,0)	(1,0)	
L1D -377>	(341,3)	(166,1)	(1,0)	(1,0)	(1,0)	(1,0)	(1,0)	(1,0)	(1,0)	(1,0)	(1,0)	(1,0)	(1,0)	(1,0)	(1,0)	(1,0)	
L1D -376>	(1,1)	(2,1)	(1,0)	(1,0)	(1,0)	(1,0)	(1,0)	(1,0)	(1,0)	(1,0)	(1,0)	(1,0)	(1,0)	(1,0)	(1,0)	(1,0)	
L1D -375>	(0,1)	(1,0)	(1,0)	(1,0)	(1,0)	(1,0)	(1,0)	(1,0)	(1,0)	(1,0)	(1,0)	(1,0)	(1,0)	(1,0)	(1,0)	(1,0)	
L1D -374>	(1,0)	(1,0)	(1,0)	(1,0)	(1,0)	(1,0)	(1,0)	(1,0)	(1,0)	(1,0)	(1,0)	(1,0)	(1,0)	(1,0)	(1,0)	(1,0)	
L1D -373>	(1,1)	(1,0)	(1,0)	(1,0)	(1,0)	(1,0)	(1,0)	(1,0)	(1,0)	(1,0)	(1,0)	(1,0)	(1,0)	(1,0)	(1,0)	(1,0)	
L1D -372>	(-21,66)	(-13,0)	(1,0)	(1,0)	(1,0)	(1,0)	(1,0)	(1,0)	(1,0)	(1,0)	(1,0)	(1,0)	(1,0)	(1,0)	(1,0)	(1,0)	
L1D -371>	(214,1)	(-24,1)	(-1,1)	(1,0)	(1,0)	(1,0)	(1,0)	(1,0)	(1,0)	(1,0)	(1,0)	(1,0)	(1,0)	(1,0)	(1,0)	(1,0)	
L1D -370>	(234,30)	(140,10)	(184,8)	(25,27)	(8,1)	(1,0)	(1,0)	(1,0)	(1,0)	(1,0)	(1,0)	(1,0)	(1,0)	(1,0)	(1,0)	(1,0)	
L1D -369>	(-1,4)	(1,0)	(1,0)	(1,0)	(1,0)	(1,0)	(1,0)	(1,0)	(1,0)	(1,0)	(1,0)	(1,0)	(1,0)	(1,0)	(1,0)	(1,0)	
L1D -368>	(-4,8)	(366,10)	(1,1)	(1,0)	(1,0)	(1,0)	(1,0)	(1,0)	(1,0)	(1,0)	(1,0)	(1,0)	(1,0)	(1,0)	(1,0)	(1,0)	
L1D -367>	(5,3)	(1,0)	(1,0)	(1,0)	(1,0)	(1,0)	(1,0)	(1,0)	(1,0)	(1,0)	(1,0)	(1,0)	(1,0)	(1,0)	(1,0)	(1,0)	
L1D -366>	(3,6)	(5,2)	(6,2)	(78,2)	(1,0)	(1,0)	(1,0)	(1,0)	(1,0)	(1,0)	(1,0)	(1,0)	(1,0)	(1,0)	(1,0)	(1,0)	
L1D -365>	(93,8)	(369,2)	(1,0)	(1,0)	(1,0)	(1,0)	(1,0)	(1,0)	(1,0)	(1,0)	(1,0)	(1,0)	(1,0)	(1,0)	(1,0)	(1,0)	
L1D -364>	(268,89)	(44,0)	(-26,1)	(353,0)	(51,0)	(50,0)	(1,0)	(1,0)	(1,0)	(1,0)	(1,0)	(1,0)	(1,0)	(1,0)	(1,0)	(1,0)	
L1D -363>	(403,3)	(51,9)	(175,2)	(83,2)	(361,1)	(75,63)	(355,1)	(5,2)	(367,2)	(345,2)	(-1,1)	(1,0)	(1,0)	(1,0)	(1,0)	(1,0)	
L1D -362>	(360,11)	(50,3)	(36,1)	(52,1)	(51,1)	(27,3)	(17,1)	(-8,1)	(1,0)	(1,0)	(1,0)	(1,0)	(1,0)	(1,0)	(1,0)	(1,0)	
L1D -361>	(359,1)	(44,1)	(49,1)	(354,1)	(1,2)	(1,0)	(1,0)	(1,0)	(1,0)	(1,0)	(1,0)	(1,0)	(1,0)	(1,0)	(1,0)	(1,0)	
L1D -360>	(298,68)	(296,19)	(148,6)	(42,2)	(358,3)	(0,1)	(48,7)	(46,0)	(36,1)	(51,0)	(40,0)	(64,2)	(2,0)	(47,2)	(359,0)	(-1,0)	
L1D -359>	(47,12)	(-1,5)	(364,1)	(43,1)	(358,2)	(357,1)	(46,1)	(1,0)	(1,0)	(1,0)	(1,0)	(1,0)	(1,0)	(1,0)	(1,0)	(1,0)	
L1D -358>	(354,0)	(47,0)	(356,94)	(46,0)	(347,0)	(316,0)	(364,0)	(363,0)	(1,0)	(1,0)	(1,0)	(1,0)	(1,0)	(1,0)	(1,0)	(1,0)	
L1D -357>	(351,1)	(350,1)	(47,1)	(48,1)	(46,1)	(1,0)	(1,0)	(1,0)	(1,0)	(1,0)	(1,0)	(1,0)	(1,0)	(1,0)	(1,0)	(1,0)	
L1D -356>	(-31,8)	(262,18)	(70,13)	(40,1)	(361,1)	(34,1)	(360,1)	(343,2)	(125,1)	(47,4)	(347,1)	(41,1)	(48,1)	(1,0)	(1,0)	(1,0)	
L1D -355>	(43,1)	(215,77)	(365,6)	(44,1)	(47,0)	(1,0)	(1,0)	(1,0)	(1,0)	(1,0)	(1,0)	(1,0)	(1,0)	(1,0)	(1,0)	(1,0)	
L1D -354>	(45,0)	(250,0)	(380,0)	(364,0)	(268,0)	(240,0)	(-42,0)	(154,0)	(396,0)	(402,0)	(292,0)	(400,0)	(388,65)	(398,0)	(378,1)	(337,0)	
L1D -353>	(342,1)	(47,1)	(343,1)	(1,0)	(1,0)	(1,0)	(1,0)	(1,0)	(1,0)	(1,0)	(1,0)	(1,0)	(1,0)	(1,0)	(1,0)	(1,0)	
L1D -352>	(339,0)	(220,114)	(88,2)	(-30,2)	(142,0)	(12,0)	(242,0)	(254,0)	(260,0)	(38,0)	(212,0)	(264,0)	(124,2)	(2,0)	(218,0)	(92,0)	
L1D -351>	(317,2)	(213,1)	(95,4)	(265,4)	(39,1)	(361,5)	(44,1)	(1,0)	(1,0)	(1,0)	(1,0)	(1,0)	(1,0)	(1,0)	(1,0)	(1,0)	
L1D -350>	(1,108)	(20,3)	(39,0)	(304,1)	(30,0)	(252,1)	(1,0)	(1,0)	(1,0)	(1,0)	(1,0)	(1,0)	(1,0)	(1,0)	(1,0)	(1,0)	
L1D -349>	(181,4)	(351,1)	(-1,1)	(37,2)	(1,0)	(1,0)	(1,0)	(1,0)	(1,0)	(1,0)	(1,0)	(1,0)	(1,0)	(1,0)	(1,0)	(1,0)	
L1D -348>	(212,4)	(4,13)	(12,2)	(36,1)	(258,1)	(347,10)	(28,7)	(256,1)	(1,0)	(1,0)	(1,0)	(1,0)	(1,0)	(1,0)	(1,0)	(1,0)	
L1D -347>	(176,2)	(3,39)	(174,22)	(83,0)	(2,99)	(4,8)	(346,26)	(172,13)	(348,12)	(349,0)	(-1,24)	(343,1)	(344,29)	(365,0)	(301,0)	(345,0)	
L1D -346>	(4,1)	(254,15)	(345,75)	(175,2)	(343,0)	(174,0)	(351,0)	(172,0)	(347,0)	(173,0)	(3,0)	(1,0)	(9,0)	(1,0)	(1,0)	(1,0)	
L1D -345>	(254,0)	(173,0)	(342,10)	(4,3)	(345,88)	(348,59)	(346,40)	(172,1)	(-2,0)	(175,6)	(174,6)	(2,6)	(-1,4)	(347,5)	(3,4)	(344,0)	
L1D -344>	(171,79)	(346,19)	(172,33)	(173,73)	(-1,50)	(2,8)	(3,12)	(342,28)	(345,1)	(168,4)	(4,12)	(348,4)	(343,99)	(170,19)	(174,88)	(1,6)	
L1D -343>	(346,0)	(3,0)	(-2,0)	(171,1)	(172,5)	(342,42)	(345,0)	(-1,90)	(-3,1)	(1,4)	(343,0)	(169,0)	(173,0)	(170,0)	(168,3)	(2,3)	
L1D -342>	(340,2)	(345,54)	(-1,36)	(171,21)	(168,1)	(343,18)	(169,0)	(-4,43)	(-3,0)	(344,0)	(173,0)	(346,90)	(170,38)	(172,3)	(1,0)	(1,0)	
L1D -341>	(343,1)	(172,117)	(171,2)	(-3,0)	(342,2)	(-1,121)	(-2,24)	(170,0)	(169,0)	(168,0)	(349,0)	(-4,0)	(1,0)	(0,0)	(173,0)	(1,0)	
L1D -340>	(170,0)	(343,7)	(171,77)	(177,0)	(349,0)	(169,10)	(168,13)	(172,13)	(-4,4)	(1,0)	(-1,19)	(2,0)	(344,5)	(1,0)	(1,0)	(1,0)	
L1D -339>	(397,43)	(170,3)	(189,1)	(310,2)	(399,6)	(27,5)	(79,1)	(338,1)	(26,7)	(22,1)	(169,2)	(360,2)	(-1,2)	(25,1)	(23,1)	(1,0)	
L1D -338>	(134,5)	(306,16)	(24,41)	(252,12)	(-14,52)	(354,3)	(242,3)	(-12,12)	(342,2)	(316,15)	(304,24)	(78,13)	(22,3)	(26,1)	(8,3)	(173,6)	
L1D -337>	(365,2)	(-1,69)	(26,2)	(1,4)	(172,23)	(336,1)	(27,1)	(-172,1)	(-2,6)	(25,1)	(1,0)	(1,0)	(1,0)	(1,0)	(1,0)	(1,0)	
L1D -336>	(212,102)	(335,0)	(82,0)	(338,0)	(24,0)	(354,0)	(240,0)	(72,0)	(254,0)	(192,0)	(228,0)	(200,0)	(313,0)	(1,0)	(1,0)	(1,0)	
L1D -335>	(-2,5)	(172,23)	(-1,25)	(23,2)	(313,2)	(334,1)	(2,1)	(315,1)	(1,0)	(1,0)	(1,0)	(1,0)	(1,0)	(1,0)	(1,0)	(1,0)	
L1D -334>	(66,1)	(14,1)	(22,1)	(220,1)	(1,0)	(1,0)	(1,0)	(1,0)	(1,0)	(1,0)	(1,0)	(1,0)	(1,0)	(1,0)	(1,0)	(1,0)	
L1D -333>	(313,2)	(332,1)	(21,1)	(1,0)	(1,0)	(1,0)	(1,0)	(1,0)	(1,0)	(1,0)	(1,0)	(1,0)	(1,0)	(1,0)	(1,0)	(1,0)	
L1D -332>	(18,102)	(334,102)	(220,0)	(313,0)	(-14,0)	(98,3)	(222,0)	(2,0)	(20,0)	(1,0)	(1,0)	(1,0)	(1,0)	(1,0)	(1,0)	(1,0)	
L1D -331>	(19,4)	(330,1)	(1,0)	(1,0)	(1,0)	(1,0)	(1,0)	(1,0)	(1,0)	(1,0)	(1,0)	(1,0)	(1,0)	(1,0)	(1,0)	(1,0)	
L1D -330>	(212,20)	(244,28)	(216,2)	(116,4)	(10,5)	(328,1)	(8,2)	(-22,127)	(338,18)	(18,2)	(232,13)	(300,7)	(2,2)	(228,1)	(242,1)	(15,2)	
L1D -329>	(3,88)	(-1,2)	(4,3)	(2,1)	(15,1)	(5,5)	(17,1)	(313,1)	(328,2)	(1,0)	(1,0)	(1,0)	(1,0)	(1,0)	(1,0)	(1,0)	
L1D -328>	(264,2)	(318,1)	(66,1)	(312,1)	(16,1)	(216,107)	(116,14)	(-32,5)	(313,0)	(1,0)	(1,0)	(1,0)	(1,0)	(1,0)	(1,0)	(1,0)	
L1D -327>	(313,1)	(-1,0)	(0,81)	(-3,0)	(1,0)	(1,0)	(1,0)	(1,0)	(1,0)	(1,0)	(1,0)	(1,0)	(1,0)	(1,0)	(1,0)	(1,0)	
L1D -326>	(1,113)	(324,0)	(218,1)	(262,0)	(-3,4)	(96,9)	(318,2)	(140,1)	(313,0)	(1,0)	(1,0)	(1,0)	(1,0)	(1,0)	(1,0)	(1,0)	
L1D -325>	(1,124)	(58,2)	(13,26)	(-15,1)	(-14,9)	(60,3)	(313,2)	(-19,1)	(1,0)	(1,0)	(1,0)	(1,0)	(1,0)	(1,0)	(1,0)	(1,0)	
L1D -324>	(313,0)	(-21,0)	(350,0)	(238,76)	(1,13)	(20,1)	(1,0)	(1,0)	(1,0)	(1,0)	(1,0)	(1,0)	(1,0)	(1,0)	(1,0)	(1,0)	
L1D -323>	(2,117)	(13,1)	(11,0)	(-6,1)	(1,0)	(1,0)	(1,0)	(1,0)	(1,0)	(1,0)	(1,0)	(1,0)	(1,0)	(1,0)	(1,0)	(1,0)	
L1D -322>	(280,4)	(74,102)	(314,91)	(197,102)	(2,0)	(326,0)	(10,0)	(232,2)	(320,0)	(20,0)	(286,0)	(288,0)	(96,1)	(302,95)	(82,0)	(174,0)	
L1D -321>	(215,19)	(2,2)	(1,0)	(1,0)	(1,0)	(1,0)	(1,0)	(1,0)	(1,0)	(1,0)	(1,0)	(1,0)	(1,0)	(1,0)	(1,0)	(1,0)	
L1D -320>	(94,0)	(280,0)	(178,0)	(-44,0)	(-16,1)	(-14,6)	(-30,0)	(258,0)	(-28,1)	(314,0)	(78,1)	(214,0)	(90,3)	(236,94)	(102,5)	(52,4)	
L1D -319>	(167,4)	(318,3)	(316,1)	(265,25)	(361,2)	(6,1)	(317,3)	(1,0)	(1,0)	(1,0)	(1,0)	(1,0)	(1,0)	(1,0)	(1,0)	(1,0)	
L1D -318>	(358,11)	(316,5)	(-42,2)	(254,10)	(28,1)	(-10,2)	(84,110)	(94,6)	(-28,19)	(352,3)	(-1,1)	(8,2)	(-2,1)	(22,1)	(104,1)	(1,0)	
L1D -317>	(-37,1)	(345,11)	(265,5)	(7,1)	(315,1)	(314,4)	(-46,1)	(316,3)	(1,3)	(-41,1)	(313,6)	(6,1)	(4,1)	(5,1)	(-1,1)	(-42,1)	
L1D -316>	(106,79)	(2,0)	(30,2)	(-43,0)	(100,1)	(244,0)	(-2,0)	(20,44)	(22,0)	(104,0)	(358,0)	(313,1)	(122,1)	(4,0)	(252,4)	(330,0)	
L1D -315>	(316,5)	(309,2)	(310,1)	(303,3)	(314,1)	(299,3)	(-25,1)	(-39,1)	(-49,1)	(311,3)	(3,9)	(312,1)	(302,1)	(-42,1)	(-45,2)	(1,0)	
L1D -314>	(272,78)	(270,2)	(298,69)	(302,0)	(-91,0)	(274,2)	(106,4)	(-6,0)	(254,0)	(198,1)	(313,0)	(98,2)	(2,0)	(218,1)	(-25,0)	(-24,1)	
L1D -313>	(-2,6)	(320,1)	(241,1)	(314,8)	(-26,1)	(309,5)	(311,15)	(305,2)	(317,2)	(308,3)	(298,2)	(312,8)	(-50,1)	(310,9)	(8,1)	(300,2)	
L1D -312>	(305,111)	(3,7)	(-1,5)	(319,9)	(311,15)	(246,1)	(-3,3)	(313,2)	(310,13)	(318,3)	(307,3)	(350,13)	(-48,6)	(327,6)	(15,2)	(315,9)	
L1D -311>	(-6,2)	(89,65)	(311,5)	(-48,3)	(-27,3)	(18,1)	(295,1)	(14,2)	(308,1)	(-1,11)	(6,1)	(294,1)	(-37,2)	(326,1)	(313,1)	(307,1)	
L1D -310>	(148,15)	(354,20)	(336,16)	(134,12)	(244,6)	(0,7)	(256,7)	(258,9)	(318,1)	(228,2)	(310,2)	(312,5)	(-2,42)	(208,50)	(108,26)	(309,2)	
L1D -309>	(316,6)	(311,1)	(-3,8)	(312,1)	(305,1)	(-52,2)	(310,3)	(307,1)	(309,124)	(11,1)	(-48,5)	(-1,2)	(313,1)	(1,0)	(1,0)	(1,0)	
L1D -308>	(260,120)	(258,2)	(270,90)	(299,1)	(86,1)	(310,0)	(82,4)	(122,0)	(14,0)	(-42,0)	(244,6)	(332,0)	(150,0)	(238,0)	(8,0)	(1,0)	
L1D -307>	(312,1)	(307,106)	(308,0)	(1,0)	(1,0)	(1,0)	(1,0)	(1,0)	(1,0)	(1,0)	(1,0)	(1,0)	(1,0)	(1,0)	(1,0)	(1,0)	
L1D -306>	(316,14)	(326,4)	(324,1)	(304,1)	(42,1)	(306,78)	(307,1)	(272,5)	(8,28)	(295,3)	(317,1)	(52,13)	(320,1)	(2,2)	(240,1)	(-5,1)	
L1D -305>	(408,22)	(20,17)	(12,105)	(293,1)	(310,1)	(322,1)	(-7,2)	(13,4)	(2,1)	(305,94)	(311,2)	(306,4)	(345,1)	(1,0)	(1,0)	(1,0)	
L1D -304>	(28,35)	(74,10)	(20,5)	(116,4)	(-40,2)	(323,3)	(112,2)	(304,40)	(258,50)	(354,23)	(-22,15)	(208,19)	(325,1)	(311,5)	(-6,1)	(-2,1)	
L1D -303>	(68,88)	(140,2)	(-36,0)	(154,2)	(260,8)	(-42,0)	(242,0)	(1,0)	(1,0)	(1,0)	(1,0)	(1,0)	(1,0)	(1,0)	(1,0)	(1,0)	
L1D -302>	(140,3)	(192,1)	(309,1)	(80,1)	(-10,1)	(158,3)	(-22,0)	(96,117)	(324,0)	(210,2)	(188,4)	(1,0)	(1,0)	(1,0)	(1,0)	(1,0)	
L1D -301>	(347,1)	(326,1)	(-11,2)	(-10,1)	(303,1)	(306,1)	(311,2)	(308,1)	(-1,1)	(1,0)	(1,0)	(1,0)	(1,0)	(1,0)	(1,0)	(1,0)	
L1D -300>	(66,35)	(-22,36)	(115,3)	(338,25)	(104,3)	(-8,2)	(327,1)	(98,1)	(242,18)	(301,1)	(-12,3)	(311,1)	(314,1)	(-10,1)	(207,1)	(302,1)	
L1D -299>	(327,2)	(-13,2)	(310,2)	(311,2)	(-1,1)	(2,1)	(5,1)	(-11,1)	(1,0)	(1,0)	(1,0)	(1,0)	(1,0)	(1,0)	(1,0)	(1,0)	
L1D -298>	(254,7)	(94,0)	(314,3)	(-14,0)	(272,0)	(40,0)	(-22,0)	(296,0)	(154,0)	(318,0)	(188,112)	(250,18)	(1,0)	(1,0)	(1,0)	(1,0)	
L1D -297>	(-15,2)	(295,5)	(297,5)	(-43,1)	(-2,1)	(1,0)	(1,0)	(1,0)	(1,0)	(1,0)	(1,0)	(1,0)	(1,0)	(1,0)	(1,0)	(1,0)	
L1D -296>	(338,12)	(42,13)	(294,15)	(26,32)	(296,10)	(267,42)	(200,29)	(297,1)	(256,19)	(-12,2)	(250,20)	(-2,2)	(-66,2)	(86,2)	(75,12)	(-22,46)	
L1D -295>	(311,0)	(-4,0)	(2,0)	(295,65)	(293,2)	(-17,0)	(1,0)	(1,0)	(1,0)	(1,0)	(1,0)	(1,0)	(1,0)	(1,0)	(1,0)	(1,0)	
L1D -294>	(268,1)	(0,2)	(166,92)	(294,0)	(250,82)	(67,0)	(76,0)	(364,2)	(32,16)	(72,1)	(70,4)	(174,1)	(-20,1)	(392,0)	(290,0)	(44,3)	
L1D -293>	(-19,2)	(317,30)	(319,77)	(-20,24)	(345,24)	(-12,7)	(293,50)	(291,2)	(1,0)	(1,0)	(1,0)	(1,0)	(1,0)	(1,0)	(1,0)	(1,0)	
L1D -292>	(244,1)	(-13,107)	(-48,1)	(-18,1)	(293,1)	(8,1)	(380,1)	(-21,1)	(272,1)	(40,2)	(67,0)	(294,2)	(10,3)	(122,0)	(318,87)	(212,0)	
L1D -291>	(5,18)	(311,2)	(-4,1)	(21,2)	(7,1)	(309,1)	(291,90)	(289,1)	(1,0)	(1,0)	(1,0)	(1,0)	(1,0)	(1,0)	(1,0)	(1,0)	
L1D -290>	(70,0)	(42,52)	(290,0)	(-22,0)	(212,7)	(302,1)	(30,14)	(100,0)	(40,2)	(18,0)	(288,0)	(262,0)	(264,0)	(244,2)	(116,87)	(10,11)	
L1D -289>	(-22,1)	(-1,2)	(3,1)	(2,1)	(289,8)	(290,1)	(1,0)	(1,0)	(1,0)	(1,0)	(1,0)	(1,0)	(1,0)	(1,0)	(1,0)	(1,0)	
L1D -288>	(308,23)	(14,1)	(136,16)	(10,15)	(105,125)	(288,1)	(1,0)	(1,0)	(1,0)	(1,0)	(1,0)	(1,0)	(1,0)	(1,0)	(1,0)	(1,0)	
L1D -287>	(-1,2)	(105,37)	(1,1)	(1,0)	(1,0)	(1,0)	(1,0)	(1,0)	(1,0)	(1,0)	(1,0)	(1,0)	(1,0)	(1,0)	(1,0)	(1,0)	
L1D -286>	(204,1)	(308,85)	(186,1)	(106,0)	(105,0)	(288,0)	(270,0)	(-10,0)	(38,0)	(26,0)	(100,0)	(13,2)	(284,2)	(1,0)	(1,0)	(1,0)	
L1D -285>	(74,1)	(1,0)	(1,0)	(1,0)	(1,0)	(1,0)	(1,0)	(1,0)	(1,0)	(1,0)	(1,0)	(1,0)	(1,0)	(1,0)	(1,0)	(1,0)	
L1D -284>	(206,0)	(-24,0)	(105,0)	(318,0)	(114,1)	(272,0)	(308,1)	(112,0)	(350,0)	(268,0)	(-10,0)	(64,89)	(212,89)	(40,2)	(66,0)	(303,1)	
L1D -283>	(212,23)	(218,7)	(186,15)	(-2,3)	(102,3)	(190,0)	(72,93)	(64,8)	(96,9)	(105,4)	(1,0)	(1,0)	(1,0)	(1,0)	(1,0)	(1,0)	
L1D -282>	(316,0)	(70,0)	(114,0)	(308,95)	(106,45)	(318,19)	(218,0)	(98,6)	(222,2)	(105,0)	(1,0)	(1,0)	(1,0)	(1,0)	(1,0)	(1,0)	
L1D -281>	(105,33)	(1,0)	(1,0)	(1,0)	(1,0)	(1,0)	(1,0)	(1,0)	(1,0)	(1,0)	(1,0)	(1,0)	(1,0)	(1,0)	(1,0)	(1,0)	
L1D -280>	(252,0)	(-12,72)	(194,0)	(92,2)	(320,0)	(206,1)	(14,0)	(100,0)	(-10,1)	(160,63)	(36,0)	(114,1)	(230,2)	(198,9)	(8,3)	(146,25)	
L1D -279>	(105,28)	(-1,1)	(1,0)	(1,0)	(1,0)	(1,0)	(1,0)	(1,0)	(1,0)	(1,0)	(1,0)	(1,0)	(1,0)	(1,0)	(1,0)	(1,0)	
L1D -278>	(238,0)	(312,84)	(318,0)	(350,0)	(82,0)	(304,1)	(228,0)	(212,0)	(214,0)	(368,0)	(200,0)	(224,0)	(292,0)	(-32,0)	(360,92)	(-2,0)	
L1D -277>	(-6,15)	(105,44)	(1,0)	(1,0)	(1,0)	(1,0)	(1,0)	(1,0)	(1,0)	(1,0)	(1,0)	(1,0)	(1,0)	(1,0)	(1,0)	(1,0)	
L1D -276>	(186,25)	(302,3)	(18,4)	(278,1)	(260,2)	(-92,26)	(28,1)	(142,1)	(230,43)	(204,15)	(105,10)	(226,2)	(1,0)	(1,0)	(1,0)	(1,0)	
L1D -275>	(277,39)	(58,4)	(212,110)	(66,0)	(90,0)	(1,0)	(1,0)	(1,0)	(1,0)	(1,0)	(1,0)	(1,0)	(1,0)	(1,0)	(1,0)	(1,0)	
L1D -274>	(166,3)	(-31,5)	(136,7)	(186,3)	(314,1)	(68,2)	(122,16)	(106,4)	(291,7)	(78,39)	(105,2)	(2,1)	(1,0)	(1,0)	(1,0)	(1,0)	
L1D -273>	(105,22)	(1,0)	(1,0)	(1,0)	(1,0)	(1,0)	(1,0)	(1,0)	(1,0)	(1,0)	(1,0)	(1,0)	(1,0)	(1,0)	(1,0)	(1,0)	
L1D -272>	(240,0)	(-54,68)	(72,22)	(-10,11)	(80,52)	(2,0)	(312,34)	(160,0)	(289,2)	(338,1)	(118,1)	(162,1)	(96,3)	(303,49)	(242,1)	(268,4)	
L1D -271>	(254,2)	(105,31)	(153,1)	(1,0)	(1,0)	(1,0)	(1,0)	(1,0)	(1,0)	(1,0)	(1,0)	(1,0)	(1,0)	(1,0)	(1,0)	(1,0)	
L1D -270>	(226,1)	(-21,108)	(14,1)	(-16,3)	(348,0)	(204,0)	(154,0)	(330,0)	(202,3)	(-25,0)	(28,1)	(272,0)	(1,0)	(1,0)	(1,0)	(1,0)	
L1D -269>	(268,2)	(269,2)	(1,0)	(1,0)	(1,0)	(1,0)	(1,0)	(1,0)	(1,0)	(1,0)	(1,0)	(1,0)	(1,0)	(1,0)	(1,0)	(1,0)	
L1D -268>	(4,5)	(-73,0)	(290,35)	(269,2)	(172,85)	(266,0)	(338,0)	(303,0)	(134,0)	(-52,0)	(228,0)	(313,4)	(-68,0)	(40,117)	(198,8)	(200,9)	
L1D -267>	(158,43)	(0,2)	(337,8)	(240,12)	(196,12)	(58,2)	(284,25)	(180,33)	(212,9)	(267,1)	(268,1)	(1,0)	(1,0)	(1,0)	(1,0)	(1,0)	
L1D -266>	(198,3)	(212,29)	(314,5)	(228,1)	(82,4)	(254,1)	(242,2)	(284,1)	(8,1)	(-95,1)	(-74,1)	(-75,0)	(96,31)	(168,103)	(72,11)	(328,6)	
L1D -265>	(167,64)	(95,1)	(138,1)	(264,13)	(361,5)	(-3,0)	(2,0)	(347,0)	(1,0)	(1,0)	(1,0)	(1,0)	(1,0)	(1,0)	(1,0)	(1,0)	
L1D -264>	(0,5)	(332,4)	(48,9)	(238,60)	(230,15)	(-4,5)	(2,9)	(36,7)	(-6,7)	(318,3)	(82,1)	(46,2)	(224,122)	(20,54)	(286,69)	(5,7)	
L1D -263>	(0,1)	(361,1)	(-3,1)	(1,0)	(1,0)	(1,0)	(1,0)	(1,0)	(1,0)	(1,0)	(1,0)	(1,0)	(1,0)	(1,0)	(1,0)	(1,0)	
L1D -262>	(-32,3)	(166,15)	(116,33)	(3,27)	(18,28)	(0,3)	(260,18)	(306,11)	(236,1)	(328,121)	(-3,49)	(370,31)	(222,9)	(267,14)	(338,98)	(234,19)	
L1D -261>	(0,67)	(103,15)	(1,0)	(1,0)	(1,0)	(1,0)	(1,0)	(1,0)	(1,0)	(1,0)	(1,0)	(1,0)	(1,0)	(1,0)	(1,0)	(1,0)	
L1D -260>	(-5,0)	(152,102)	(212,1)	(-78,3)	(220,2)	(308,0)	(380,4)	(-54,3)	(12,3)	(168,2)	(-12,1)	(288,13)	(326,9)	(106,8)	(66,2)	(-90,0)	
L1D -259>	(-5,18)	(0,81)	(-1,1)	(-3,2)	(24,5)	(1,0)	(1,0)	(1,0)	(1,0)	(1,0)	(1,0)	(1,0)	(1,0)	(1,0)	(1,0)	(1,0)	
L1D -258>	(115,70)	(-8,0)	(262,72)	(84,0)	(38,5)	(66,25)	(-58,0)	(224,0)	(230,0)	(-10,1)	(120,0)	(112,64)	(110,0)	(0,0)	(216,1)	(252,1)	
L1D -257>	(-1,1)	(0,51)	(-3,1)	(1,0)	(1,0)	(1,0)	(1,0)	(1,0)	(1,0)	(1,0)	(1,0)	(1,0)	(1,0)	(1,0)	(1,0)	(1,0)	
L1D -256>	(2,11)	(84,110)	(74,5)	(14,3)	(168,1)	(-14,4)	(328,11)	(124,1)	(196,3)	(312,14)	(0,22)	(8,5)	(232,4)	(-3,0)	(-54,1)	(31,0)	
L1D -255>	(267,1)	(0,16)	(70,1)	(-1,1)	(1,1)	(1,0)	(1,0)	(1,0)	(1,0)	(1,0)	(1,0)	(1,0)	(1,0)	(1,0)	(1,0)	(1,0)	
L1D -254>	(352,24)	(24,4)	(316,5)	(272,8)	(254,2)	(114,13)	(318,2)	(121,11)	(-10,13)	(28,22)	(0,11)	(-52,10)	(26,2)	(70,4)	(153,1)	(1,1)	
L1D -253>	(1,3)	(0,1)	(1,0)	(1,0)	(1,0)	(1,0)	(1,0)	(1,0)	(1,0)	(1,0)	(1,0)	(1,0)	(1,0)	(1,0)	(1,0)	(1,0)	
L1D -252>	(260,1)	(386,127)	(2,1)	(208,0)	(112,6)	(267,0)	(308,0)	(106,0)	(188,23)	(118,0)	(116,0)	(360,0)	(154,2)	(256,0)	(164,0)	(28,0)	
L1D -251>	(0,1)	(78,1)	(251,1)	(1,0)	(1,0)	(1,0)	(1,0)	(1,0)	(1,0)	(1,0)	(1,0)	(1,0)	(1,0)	(1,0)	(1,0)	(1,0)	
L1D -250>	(-40,27)	(254,87)	(244,32)	(177,30)	(2,104)	(-10,28)	(334,2)	(-1,1)	(0,1)	(70,31)	(121,5)	(292,1)	(318,10)	(56,29)	(106,10)	(47,2)	
L1D -249>	(249,1)	(-1,2)	(2,1)	(0,1)	(1,0)	(1,0)	(1,0)	(1,0)	(1,0)	(1,0)	(1,0)	(1,0)	(1,0)	(1,0)	(1,0)	(1,0)	
L1D -248>	(66,1)	(434,0)	(-12,50)	(10,1)	(190,96)	(144,1)	(286,1)	(248,0)	(-24,43)	(-18,0)	(2,1)	(54,10)	(288,6)	(314,1)	(16,3)	(7,1)	
L1D -247>	(72,2)	(96,0)	(64,0)	(194,73)	(256,0)	(0,0)	(247,0)	(1,0)	(1,0)	(1,0)	(1,0)	(1,0)	(1,0)	(1,0)	(1,0)	(1,0)	
L1D -246>	(144,5)	(198,1)	(48,2)	(336,0)	(272,7)	(364,1)	(318,0)	(294,0)	(78,3)	(-76,112)	(220,76)	(0,23)	(238,6)	(154,3)	(142,3)	(1,1)	
L1D -245>	(0,77)	(-3,0)	(1,0)	(1,0)	(1,0)	(1,0)	(1,0)	(1,0)	(1,0)	(1,0)	(1,0)	(1,0)	(1,0)	(1,0)	(1,0)	(1,0)	
L1D -244>	(48,11)	(371,0)	(254,0)	(236,0)	(-78,0)	(270,0)	(268,1)	(310,90)	(336,0)	(242,15)	(258,2)	(108,5)	(318,1)	(-22,1)	(338,1)	(0,0)	
L1D -243>	(0,105)	(1,0)	(1,0)	(1,0)	(1,0)	(1,0)	(1,0)	(1,0)	(1,0)	(1,0)	(1,0)	(1,0)	(1,0)	(1,0)	(1,0)	(1,0)	
L1D -242>	(158,9)	(6,1)	(20,21)	(2,79)	(252,1)	(194,12)	(176,1)	(260,1)	(47,4)	(240,1)	(168,0)	(18,1)	(314,0)	(12,1)	(-80,0)	(48,2)	
L1D -241>	(0,2)	(1,0)	(1,0)	(1,0)	(1,0)	(1,0)	(1,0)	(1,0)	(1,0)	(1,0)	(1,0)	(1,0)	(1,0)	(1,0)	(1,0)	(1,0)	
L1D -240>	(10,9)	(346,0)	(28,4)	(314,1)	(-74,3)	(-2,1)	(177,0)	(304,0)	(208,0)	(24,0)	(38,3)	(0,0)	(190,4)	(-3,0)	(116,2)	(-10,76)	
L1D -239>	(186,9)	(1,0)	(1,0)	(1,0)	(1,0)	(1,0)	(1,0)	(1,0)	(1,0)	(1,0)	(1,0)	(1,0)	(1,0)	(1,0)	(1,0)	(1,0)	
L1D -238>	(-56,2)	(8,2)	(102,0)	(172,0)	(198,1)	(1,0)	(220,0)	(215,0)	(38,0)	(308,5)	(44,76)	(2,2)	(298,1)	(-76,0)	(16,5)	(280,4)	
L1D -237>	(47,1)	(1,0)	(1,0)	(1,0)	(1,0)	(1,0)	(1,0)	(1,0)	(1,0)	(1,0)	(1,0)	(1,0)	(1,0)	(1,0)	(1,0)	(1,0)	
L1D -236>	(178,1)	(166,0)	(330,0)	(66,0)	(316,2)	(312,2)	(234,0)	(70,0)	(200,0)	(278,107)	(264,28)	(224,4)	(84,0)	(318,0)	(64,0)	(1,0)	
L1D -235>	(302,73)	(72,0)	(1,0)	(1,0)	(1,0)	(1,0)	(1,0)	(1,0)	(1,0)	(1,0)	(1,0)	(1,0)	(1,0)	(1,0)	(1,0)	(1,0)	
L1D -234>	(146,10)	(318,65)	(250,1)	(244,0)	(114,27)	(220,2)	(66,0)	(122,0)	(100,0)	(246,0)	(-28,23)	(14,0)	(-94,1)	(42,0)	(-67,0)	(198,1)	
L1D -233>	(303,1)	(1,1)	(4,2)	(1,0)	(1,0)	(1,0)	(1,0)	(1,0)	(1,0)	(1,0)	(1,0)	(1,0)	(1,0)	(1,0)	(1,0)	(1,0)	
L1D -232>	(324,24)	(126,42)	(260,4)	(338,10)	(92,12)	(228,10)	(8,6)	(192,3)	(-92,24)	(-88,3)	(88,3)	(28,65)	(206,1)	(120,8)	(-106,2)	(5,5)	
L1D -231>	(3,7)	(-1,1)	(1,2)	(1,0)	(1,0)	(1,0)	(1,0)	(1,0)	(1,0)	(1,0)	(1,0)	(1,0)	(1,0)	(1,0)	(1,0)	(1,0)	
L1D -230>	(84,1)	(115,71)	(-10,0)	(14,44)	(102,0)	(190,6)	(-84,3)	(186,0)	(44,55)	(214,4)	(8,53)	(248,6)	(-78,1)	(-12,4)	(160,1)	(228,4)	
L1D -229>	(110,5)	(2,2)	(1,2)	(1,0)	(1,0)	(1,0)	(1,0)	(1,0)	(1,0)	(1,0)	(1,0)	(1,0)	(1,0)	(1,0)	(1,0)	(1,0)	
L1D -228>	(152,1)	(266,1)	(314,4)	(250,12)	(226,8)	(-40,11)	(302,4)	(144,3)	(252,2)	(96,7)	(128,7)	(162,108)	(-124,3)	(208,1)	(206,121)	(-18,1)	
L1D -227>	(224,1)	(180,2)	(110,5)	(-1,2)	(1,0)	(1,0)	(1,0)	(1,0)	(1,0)	(1,0)	(1,0)	(1,0)	(1,0)	(1,0)	(1,0)	(1,0)	
L1D -226>	(122,127)	(162,0)	(-28,0)	(62,0)	(272,0)	(324,0)	(176,0)	(54,0)	(-134,125)	(164,0)	(1,0)	(1,0)	(1,0)	(1,0)	(1,0)	(1,0)	
L1D -225>	(318,1)	(2,1)	(1,1)	(1,0)	(1,0)	(1,0)	(1,0)	(1,0)	(1,0)	(1,0)	(1,0)	(1,0)	(1,0)	(1,0)	(1,0)	(1,0)	
L1D -224>	(-102,80)	(170,0)	(78,12)	(176,0)	(84,0)	(-18,1)	(134,0)	(-96,3)	(68,0)	(250,0)	(334,0)	(-64,0)	(142,0)	(28,0)	(-16,0)	(132,0)	
L1D -223>	(1,1)	(1,0)	(1,0)	(1,0)	(1,0)	(1,0)	(1,0)	(1,0)	(1,0)	(1,0)	(1,0)	(1,0)	(1,0)	(1,0)	(1,0)	(1,0)	
L1D -222>	(120,8)	(290,105)	(258,1)	(232,3)	(244,1)	(30,7)	(112,5)	(328,2)	(332,91)	(14,2)	(80,86)	(-80,6)	(-22,2)	(10,2)	(-10,4)	(-100,84)	
L1D -221>	(14,29)	(-46,4)	(1,2)	(0,3)	(2,1)	(3,1)	(1,0)	(1,0)	(1,0)	(1,0)	(1,0)	(1,0)	(1,0)	(1,0)	(1,0)	(1,0)	
L1D -220>	(-10,51)	(162,125)	(98,15)	(84,1)	(78,1)	(2,2)	(264,7)	(194,1)	(-14,6)	(166,70)	(254,7)	(48,25)	(234,21)	(-106,14)	(8,10)	(0,1)	
L1D -219>	(122,114)	(221,3)	(-18,0)	(0,0)	(224,0)	(2,1)	(228,1)	(1,0)	(1,0)	(1,0)	(1,0)	(1,0)	(1,0)	(1,0)	(1,0)	(1,0)	
L1D -218>	(232,109)	(64,0)	(8,0)	(40,0)	(-130,0)	(66,0)	(314,0)	(154,0)	(-102,2)	(102,2)	(-94,0)	(149,0)	(286,2)	(234,4)	(212,1)	(114,1)	
L1D -217>	(-58,1)	(32,1)	(154,1)	(0,2)	(1,2)	(6,1)	(1,0)	(1,0)	(1,0)	(1,0)	(1,0)	(1,0)	(1,0)	(1,0)	(1,0)	(1,0)	
L1D -216>	(212,27)	(66,4)	(20,1)	(34,1)	(94,2)	(193,105)	(2,22)	(-2,1)	(-24,6)	(258,1)	(115,11)	(158,25)	(80,15)	(222,94)	(176,16)	(302,26)	
L1D -215>	(201,3)	(405,1)	(365,1)	(98,58)	(345,3)	(0,1)	(2,1)	(1,0)	(1,0)	(1,0)	(1,0)	(1,0)	(1,0)	(1,0)	(1,0)	(1,0)	
L1D -214>	(94,0)	(28,11)	(78,1)	(212,2)	(160,1)	(236,3)	(115,3)	(18,1)	(-84,1)	(112,1)	(120,0)	(208,3)	(-100,0)	(188,2)	(222,103)	(138,2)	
L1D -213>	(95,5)	(102,7)	(361,3)	(351,4)	(319,2)	(167,1)	(2,2)	(1,0)	(1,0)	(1,0)	(1,0)	(1,0)	(1,0)	(1,0)	(1,0)	(1,0)	
L1D -212>	(238,82)	(86,0)	(174,0)	(168,87)	(272,0)	(-116,9)	(304,8)	(150,3)	(94,0)	(208,76)	(160,0)	(-22,1)	(8,2)	(206,0)	(214,5)	(232,0)	
L1D -211>	(175,72)	(-1,2)	(2,11)	(24,24)	(-32,1)	(-2,1)	(1,1)	(1,0)	(1,0)	(1,0)	(1,0)	(1,0)	(1,0)	(1,0)	(1,0)	(1,0)	
L1D -210>	(175,8)	(28,80)	(150,0)	(96,3)	(-14,99)	(-8,0)	(14,100)	(112,1)	(216,0)	(-142,2)	(156,0)	(174,2)	(-88,0)	(118,12)	(270,1)	(130,1)	
L1D -209>	(-12,32)	(138,5)	(-32,2)	(-9,1)	(2,1)	(172,1)	(0,7)	(1,0)	(1,0)	(1,0)	(1,0)	(1,0)	(1,0)	(1,0)	(1,0)	(1,0)	
L1D -208>	(28,47)	(102,3)	(258,80)	(98,23)	(236,19)	(8,3)	(-106,6)	(230,11)	(-4,6)	(-80,2)	(-34,29)	(256,5)	(264,1)	(-14,6)	(-108,4)	(206,11)	
L1D -207>	(-14,15)	(-60,14)	(110,33)	(-10,1)	(-1,1)	(210,1)	(1,0)	(1,0)	(1,0)	(1,0)	(1,0)	(1,0)	(1,0)	(1,0)	(1,0)	(1,0)	
L1D -206>	(-28,7)	(28,16)	(56,6)	(-8,16)	(126,5)	(198,2)	(236,5)	(206,41)	(278,2)	(48,10)	(102,1)	(-14,1)	(14,1)	(-24,120)	(10,11)	(-22,6)	
L1D -205>	(128,1)	(2,1)	(-16,1)	(277,7)	(13,1)	(1,0)	(1,0)	(1,0)	(1,0)	(1,0)	(1,0)	(1,0)	(1,0)	(1,0)	(1,0)	(1,0)	
L1D -204>	(230,0)	(8,106)	(88,0)	(-60,0)	(28,0)	(76,0)	(-14,0)	(240,7)	(14,0)	(158,0)	(296,0)	(102,0)	(177,0)	(4,0)	(232,34)	(36,0)	
L1D -203>	(204,1)	(55,22)	(203,34)	(1,1)	(212,3)	(25,3)	(0,1)	(1,0)	(1,0)	(1,0)	(1,0)	(1,0)	(1,0)	(1,0)	(1,0)	(1,0)	
L1D -202>	(-102,0)	(308,2)	(106,4)	(42,103)	(28,0)	(314,0)	(148,1)	(6,90)	(50,2)	(-134,0)	(1,0)	(210,79)	(128,0)	(-28,0)	(312,1)	(100,0)	
L1D -201>	(143,1)	(177,1)	(200,2)	(215,19)	(25,1)	(-61,1)	(0,2)	(1,0)	(1,0)	(1,0)	(1,0)	(1,0)	(1,0)	(1,0)	(1,0)	(1,0)	
L1D -200>	(38,1)	(80,108)	(126,1)	(-38,0)	(240,2)	(162,1)	(198,1)	(0,0)	(14,2)	(-62,1)	(215,0)	(236,0)	(94,51)	(196,1)	(258,2)	(174,1)	
L1D -199>	(-8,27)	(1,1)	(198,8)	(23,7)	(0,43)	(1,0)	(1,0)	(1,0)	(1,0)	(1,0)	(1,0)	(1,0)	(1,0)	(1,0)	(1,0)	(1,0)	
L1D -198>	(160,20)	(-54,8)	(136,2)	(224,10)	(188,3)	(150,3)	(228,1)	(196,1)	(190,1)	(1,1)	(244,8)	(272,19)	(216,29)	(-84,53)	(234,113)	(177,2)	
L1D -197>	(0,107)	(177,0)	(21,1)	(1,3)	(2,1)	(1,0)	(1,0)	(1,0)	(1,0)	(1,0)	(1,0)	(1,0)	(1,0)	(1,0)	(1,0)	(1,0)	
L1D -196>	(0,1)	(38,18)	(202,1)	(278,1)	(120,1)	(-76,2)	(228,1)	(-78,1)	(84,91)	(326,1)	(130,6)	(240,1)	(12,36)	(192,5)	(-68,2)	(238,1)	
L1D -195>	(195,109)	(0,0)	(48,109)	(19,0)	(197,0)	(1,0)	(1,0)	(1,0)	(1,0)	(1,0)	(1,0)	(1,0)	(1,0)	(1,0)	(1,0)	(1,0)	
L1D -194>	(254,1)	(-72,4)	(308,5)	(104,106)	(74,2)	(190,3)	(-20,2)	(150,4)	(8,2)	(124,2)	(-78,4)	(16,2)	(218,5)	(-22,2)	(152,10)	(181,6)	
L1D -193>	(224,39)	(17,5)	(1,60)	(-1,2)	(193,16)	(192,3)	(385,2)	(345,3)	(177,6)	(67,1)	(0,33)	(1,0)	(1,0)	(1,0)	(1,0)	(1,0)	
L1D -192>	(66,102)	(104,0)	(74,0)	(80,2)	(16,1)	(-42,0)	(246,0)	(342,0)	(1,1)	(195,0)	(190,0)	(193,0)	(-68,0)	(-24,0)	(-23,0)	(156,13)	
L1D -191>	(162,1)	(196,1)	(190,3)	(16,8)	(177,7)	(15,9)	(105,7)	(179,1)	(2,1)	(0,31)	(1,0)	(1,0)	(1,0)	(1,0)	(1,0)	(1,0)	
L1D -190>	(188,96)	(9,0)	(5,0)	(208,4)	(254,9)	(318,2)	(132,1)	(-10,0)	(84,0)	(189,0)	(128,6)	(136,8)	(13,0)	(14,3)	(6,0)	(106,0)	
L1D -189>	(1,20)	(13,7)	(188,4)	(105,80)	(0,22)	(190,7)	(187,3)	(8,2)	(4,1)	(178,3)	(177,1)	(3,1)	(1,0)	(1,0)	(1,0)	(1,0)	
L1D -188>	(106,1)	(164,3)	(166,0)	(260,1)	(20,2)	(228,4)	(100,67)	(28,16)	(-46,2)	(254,2)	(262,7)	(-76,48)	(150,7)	(44,5)	(286,22)	(-15,1)	
L1D -187>	(-12,42)	(0,126)	(11,1)	(188,1)	(44,0)	(9,9)	(-96,11)	(180,0)	(10,0)	(176,0)	(12,0)	(105,0)	(187,0)	(177,0)	(1,0)	(8,3)	
L1D -186>	(10,1)	(-122,18)	(-76,2)	(-46,5)	(212,44)	(5,0)	(185,1)	(214,0)	(0,0)	(1,0)	(-8,0)	(2,1)	(160,0)	(267,74)	(102,8)	(-44,0)	
L1D -185>	(2,0)	(1,0)	(8,1)	(184,0)	(215,0)	(106,71)	(185,0)	(138,1)	(0,0)	(9,0)	(177,0)	(1,0)	(1,0)	(1,0)	(1,0)	(1,0)	
L1D -184>	(110,76)	(177,1)	(-46,4)	(72,4)	(6,1)	(194,12)	(12,9)	(68,5)	(180,68)	(-70,1)	(210,1)	(242,2)	(-8,2)	(212,5)	(-108,2)	(118,1)	
L1D -183>	(38,17)	(51,2)	(122,23)	(8,15)	(190,2)	(5,48)	(7,1)	(161,12)	(9,6)	(105,5)	(177,1)	(179,2)	(-1,2)	(6,2)	(0,2)	(193,2)	
L1D -182>	(6,0)	(-136,1)	(106,1)	(-132,69)	(-66,23)	(-1,0)	(2,0)	(250,1)	(-46,5)	(-28,0)	(24,0)	(38,29)	(-36,69)	(160,2)	(161,0)	(-2,1)	
L1D -181>	(87,3)	(-1,118)	(213,18)	(301,21)	(0,10)	(175,8)	(160,23)	(95,74)	(186,1)	(361,29)	(385,5)	(265,56)	(351,7)	(159,4)	(67,7)	(293,14)	
L1D -180>	(156,2)	(8,78)	(66,13)	(224,2)	(136,2)	(208,81)	(82,7)	(-138,55)	(-16,1)	(178,6)	(-30,80)	(0,2)	(160,20)	(50,2)	(177,1)	(112,78)	
L1D -179>	(115,7)	(-40,105)	(3,6)	(187,1)	(175,13)	(182,7)	(174,16)	(176,12)	(1,3)	(163,3)	(188,1)	(173,2)	(177,4)	(165,6)	(-2,2)	(186,1)	
L1D -178>	(102,87)	(182,1)	(171,1)	(147,1)	(136,88)	(175,2)	(48,8)	(0,0)	(164,0)	(270,2)	(172,0)	(173,0)	(134,0)	(-138,1)	(204,2)	(176,0)	
L1D -177>	(244,34)	(1,1)	(174,8)	(168,15)	(-2,4)	(171,19)	(175,35)	(169,3)	(173,24)	(-1,17)	(-15,5)	(172,8)	(170,13)	(164,16)	(215,8)	(-3,5)	
L1D -176>	(173,1)	(4,9)	(193,0)	(170,0)	(268,3)	(-98,0)	(344,0)	(171,0)	(175,69)	(172,1)	(212,0)	(2,6)	(-2,0)	(149,0)	(201,0)	(174,1)	
L1D -175>	(4,76)	(12,9)	(108,0)	(-12,0)	(180,1)	(3,6)	(172,9)	(154,0)	(348,1)	(-8,4)	(347,0)	(-172,4)	(174,0)	(-168,1)	(171,0)	(165,0)	
L1D -174>	(32,14)	(170,4)	(178,0)	(4,4)	(-172,57)	(173,92)	(1,1)	(346,5)	(96,1)	(2,0)	(3,40)	(175,2)	(-170,2)	(-1,0)	(172,2)	(0,0)	
L1D -173>	(178,0)	(344,35)	(170,49)	(174,93)	(173,42)	(-3,3)	(176,0)	(-171,4)	(-172,3)	(-173,0)	(171,0)	(-1,6)	(1,17)	(3,15)	(172,48)	(2,2)	
L1D -172>	(-169,5)	(170,5)	(-172,1)	(348,1)	(-90,5)	(173,86)	(169,29)	(345,20)	(171,7)	(1,22)	(-4,1)	(-170,1)	(174,2)	(175,6)	(-3,9)	(342,2)	
L1D -171>	(126,11)	(170,81)	(-3,15)	(342,7)	(172,47)	(173,36)	(-172,9)	(0,14)	(168,23)	(-173,69)	(1,54)	(-1,35)	(2,1)	(-2,14)	(344,15)	(174,23)	
L1D -170>	(171,3)	(206,0)	(-4,30)	(-122,0)	(173,66)	(174,22)	(-110,17)	(-1,14)	(-172,30)	(342,2)	(180,18)	(172,12)	(-175,3)	(-3,8)	(169,11)	(-30,0)	
L1D -169>	(-1,21)	(171,75)	(-171,1)	(-172,2)	(170,1)	(183,0)	(7,0)	(97,1)	(173,0)	(-4,0)	(168,3)	(172,0)	(342,4)	(187,0)	(-2,0)	(341,0)	
L1D -168>	(340,1)	(56,1)	(344,0)	(172,81)	(-176,0)	(158,113)	(32,0)	(188,0)	(343,0)	(-4,20)	(171,0)	(337,4)	(180,0)	(40,4)	(182,2)	(118,1)	
L1D -167>	(167,72)	(166,72)	(-9,4)	(1,3)	(75,5)	(361,27)	(95,80)	(-172,38)	(172,3)	(-1,4)	(170,2)	(-2,2)	(169,11)	(175,4)	(168,3)	(31,1)	
L1D -166>	(28,1)	(175,0)	(168,0)	(26,2)	(167,0)	(220,6)	(-46,0)	(-1,0)	(114,2)	(-181,2)	(136,0)	(360,0)	(8,0)	(214,97)	(-106,2)	(-114,0)	
L1D -165>	(344,2)	(166,1)	(-1,72)	(1,35)	(172,60)	(175,4)	(9,2)	(72,12)	(-172,14)	(-2,15)	(-9,3)	(189,2)	(187,2)	(167,6)	(342,1)	(-10,1)	
L1D -164>	(114,124)	(163,11)	(188,1)	(120,1)	(190,0)	(13,14)	(62,0)	(166,0)	(200,1)	(-12,1)	(1,0)	(1,0)	(1,0)	(1,0)	(1,0)	(1,0)	
L1D -163>	(1,127)	(178,1)	(163,111)	(-20,6)	(-12,1)	(12,1)	(184,0)	(171,8)	(-1,2)	(1,0)	(1,0)	(1,0)	(1,0)	(1,0)	(1,0)	(1,0)	
L1D -162>	(148,0)	(238,100)	(-148,4)	(-1,1)	(190,0)	(-14,0)	(175,0)	(-56,1)	(-58,0)	(-38,94)	(180,0)	(-2,16)	(164,0)	(136,2)	(-64,4)	(11,3)	
L1D -161>	(32,2)	(-110,14)	(162,22)	(-15,8)	(175,8)	(191,3)	(172,4)	(163,25)	(174,3)	(5,17)	(-14,7)	(-1,4)	(169,1)	(186,1)	(-42,1)	(21,2)	
L1D -160>	(163,50)	(188,1)	(-16,1)	(-64,111)	(2,1)	(-13,0)	(80,0)	(98,0)	(246,2)	(12,0)	(-100,105)	(28,1)	(-98,0)	(-1,0)	(161,0)	(119,0)	
L1D -159>	(157,3)	(158,51)	(95,102)	(3,12)	(161,5)	(-3,2)	(9,44)	(160,3)	(175,1)	(174,2)	(153,2)	(149,1)	(18,2)	(-2,1)	(152,0)	(-17,2)	
L1D -158>	(66,6)	(-64,4)	(160,1)	(152,7)	(-1,1)	(-56,1)	(48,2)	(-48,1)	(144,2)	(-8,2)	(188,107)	(84,0)	(126,1)	(-148,0)	(150,1)	(20,0)	
L1D -157>	(-56,126)	(157,1)	(0,0)	(-84,1)	(-16,0)	(1,0)	(1,0)	(1,0)	(1,0)	(1,0)	(1,0)	(1,0)	(1,0)	(1,0)	(1,0)	(1,0)	
L1D -156>	(28,5)	(88,0)	(-26,6)	(172,0)	(102,1)	(142,0)	(64,1)	(188,1)	(-100,74)	(242,60)	(18,2)	(136,52)	(-6,2)	(74,0)	(175,0)	(104,5)	
L1D -155>	(-21,2)	(-20,9)	(155,6)	(186,1)	(153,1)	(156,7)	(152,1)	(0,1)	(1,0)	(1,0)	(1,0)	(1,0)	(1,0)	(1,0)	(1,0)	(1,0)	
L1D -154>	(152,1)	(210,70)	(34,69)	(94,2)	(140,3)	(260,1)	(122,3)	(-12,62)	(-102,8)	(93,1)	(124,1)	(8,2)	(130,1)	(96,9)	(118,2)	(174,0)	
L1D -153>	(93,98)	(157,4)	(91,12)	(87,2)	(0,3)	(-1,19)	(152,4)	(94,6)	(153,9)	(92,2)	(-22,2)	(78,4)	(137,2)	(135,1)	(89,7)	(156,1)	
L1D -152>	(-122,120)	(96,4)	(-134,1)	(390,1)	(89,2)	(226,0)	(6,0)	(88,0)	(-136,2)	(93,3)	(92,4)	(-100,0)	(-78,1)	(149,0)	(150,0)	(-1,0)	
L1D -151>	(91,13)	(150,5)	(146,4)	(1,4)	(90,4)	(-1,1)	(-5,27)	(88,3)	(140,11)	(-20,67)	(13,1)	(142,4)	(154,4)	(89,9)	(149,3)	(-21,26)	
L1D -150>	(149,9)	(185,1)	(224,0)	(210,2)	(-5,0)	(138,1)	(208,0)	(147,1)	(220,1)	(28,1)	(206,0)	(42,1)	(-50,0)	(1,0)	(352,78)	(260,0)	
L1D -149>	(154,1)	(-10,3)	(89,1)	(13,1)	(-12,1)	(11,2)	(88,96)	(-154,2)	(15,2)	(-8,4)	(106,1)	(90,0)	(12,1)	(1,0)	(1,0)	(1,0)	
L1D -148>	(326,71)	(83,1)	(0,1)	(216,5)	(-122,83)	(206,3)	(90,0)	(139,0)	(212,7)	(148,0)	(-100,1)	(147,1)	(304,0)	(56,5)	(258,1)	(218,0)	
L1D -147>	(0,2)	(146,2)	(-3,1)	(-121,1)	(154,7)	(150,1)	(143,2)	(262,9)	(-12,91)	(-125,45)	(1,2)	(148,2)	(133,2)	(89,3)	(91,1)	(217,4)	
L1D -146>	(-100,23)	(91,1)	(145,117)	(-1,2)	(103,3)	(106,2)	(148,20)	(135,1)	(-76,2)	(48,4)	(-84,2)	(30,3)	(154,1)	(93,1)	(104,22)	(1,3)	
L1D -145>	(0,108)	(154,1)	(130,1)	(7,1)	(148,1)	(82,1)	(132,1)	(86,1)	(-1,1)	(141,0)	(212,1)	(133,0)	(6,0)	(1,0)	(1,0)	(1,0)	
L1D -144>	(38,114)	(-1,1)	(-170,18)	(236,114)	(133,1)	(104,1)	(-72,3)	(143,1)	(66,90)	(42,1)	(141,2)	(102,2)	(-120,1)	(210,1)	(-5,0)	(1,3)	
L1D -143>	(0,7)	(142,2)	(113,1)	(104,3)	(136,1)	(91,1)	(134,0)	(99,0)	(152,0)	(-21,93)	(132,0)	(94,1)	(102,0)	(103,1)	(144,0)	(101,1)	
L1D -142>	(4,0)	(0,114)	(-178,25)	(49,0)	(154,2)	(138,0)	(3,0)	(18,1)	(232,1)	(-96,0)	(137,0)	(-76,0)	(136,1)	(-6,0)	(32,0)	(156,1)	
L1D -141>	(104,0)	(-1,0)	(97,0)	(154,0)	(98,0)	(137,0)	(3,0)	(139,1)	(130,0)	(128,0)	(103,0)	(86,0)	(100,0)	(136,0)	(127,0)	(0,85)	
L1D -140>	(50,25)	(-92,3)	(26,34)	(-21,33)	(0,127)	(-56,1)	(96,1)	(242,0)	(-50,11)	(175,0)	(137,0)	(102,1)	(184,0)	(136,0)	(-14,27)	(150,15)	
L1D -139>	(-4,75)	(1,109)	(132,1)	(-25,11)	(4,1)	(12,5)	(135,1)	(143,2)	(138,1)	(142,1)	(136,6)	(134,1)	(137,3)	(154,1)	(125,0)	(-1,6)	
L1D -138>	(141,8)	(139,17)	(-98,84)	(236,92)	(84,8)	(232,108)	(-6,111)	(66,7)	(140,23)	(-154,1)	(137,11)	(254,30)	(134,8)	(-3,9)	(136,20)	(138,9)	
L1D -137>	(2,2)	(-2,4)	(140,5)	(127,3)	(137,78)	(-8,2)	(1,3)	(232,24)	(139,10)	(12,1)	(9,5)	(-95,3)	(138,34)	(13,3)	(3,6)	(96,1)	
L1D -136>	(-180,65)	(-13,62)	(232,1)	(254,0)	(133,0)	(-108,1)	(1,1)	(-10,1)	(124,0)	(144,0)	(126,1)	(-1,1)	(44,2)	(122,0)	(-94,2)	(42,3)	
L1D -135>	(124,5)	(128,5)	(138,9)	(-1,2)	(94,2)	(137,5)	(141,2)	(-84,13)	(28,1)	(133,12)	(134,4)	(1,6)	(2,112)	(3,1)	(154,4)	(96,3)	
L1D -134>	(-13,93)	(133,10)	(118,1)	(130,2)	(138,1)	(128,4)	(127,2)	(111,5)	(162,76)	(132,6)	(216,2)	(131,4)	(22,68)	(298,102)	(92,10)	(-1,7)	
L1D -133>	(132,23)	(133,14)	(131,12)	(-1,23)	(100,2)	(146,2)	(129,7)	(91,33)	(70,1)	(134,2)	(51,7)	(90,1)	(140,1)	(228,3)	(73,4)	(1,115)	
L1D -132>	(90,1)	(276,3)	(100,2)	(-82,18)	(82,118)	(-108,8)	(267,3)	(110,96)	(133,4)	(-42,4)	(70,87)	(120,2)	(140,1)	(128,3)	(-132,1)	(-73,2)	
L1D -131>	(-127,7)	(130,19)	(-1,8)	(89,23)	(132,14)	(2,4)	(129,16)	(126,7)	(133,18)	(125,7)	(73,1)	(154,14)	(146,11)	(91,4)	(116,10)	(87,5)	
L1D -130>	(14,5)	(-92,11)	(-16,95)	(268,3)	(56,109)	(-6,1)	(188,95)	(10,2)	(125,1)	(133,3)	(20,6)	(12,2)	(88,2)	(122,2)	(129,1)	(128,1)	
L1D -129>	(154,6)	(46,40)	(125,3)	(144,1)	(-1,5)	(-9,4)	(98,2)	(134,6)	(131,18)	(127,3)	(87,2)	(119,3)	(132,11)	(116,2)	(117,3)	(133,9)	
L1D -128>	(142,67)	(-1,91)	(70,8)	(131,1)	(266,1)	(145,1)	(314,1)	(14,1)	(318,0)	(16,4)	(132,2)	(126,0)	(226,0)	(208,0)	(-54,2)	(133,2)	
L1D -127>	(166,74)	(117,0)	(134,0)	(132,0)	(130,0)	(184,1)	(103,0)	(-88,1)	(129,0)	(98,0)	(122,0)	(-11,0)	(131,0)	(125,0)	(128,0)	(85,0)	
L1D -126>	(134,2)	(-1,119)	(24,54)	(84,11)	(172,76)	(-46,90)	(70,14)	(119,6)	(111,5)	(132,1)	(123,5)	(122,2)	(32,2)	(178,4)	(125,3)	(124,1)	
L1D -125>	(66,1)	(83,1)	(124,5)	(76,1)	(123,2)	(120,0)	(8,64)	(240,2)	(125,1)	(132,0)	(131,0)	(2,1)	(226,2)	(-1,2)	(-3,0)	(122,2)	
L1D -124>	(2,1)	(216,104)	(-13,106)	(118,1)	(130,90)	(220,2)	(146,1)	(-21,2)	(124,1)	(116,1)	(82,4)	(122,0)	(-26,2)	(-1,2)	(117,3)	(112,2)	
L1D -123>	(332,120)	(132,6)	(-1,32)	(83,8)	(122,1)	(236,7)	(124,17)	(131,8)	(125,8)	(2,3)	(81,35)	(133,2)	(134,2)	(126,3)	(84,6)	(1,60)	
L1D -122>	(218,81)	(4,6)	(-96,88)	(111,8)	(180,74)	(246,4)	(-28,15)	(-94,80)	(-92,3)	(332,86)	(44,73)	(150,59)	(186,1)	(154,82)	(78,14)	(10,2)	
L1D -121>	(80,2)	(-27,99)	(125,1)	(73,1)	(119,4)	(120,1)	(126,1)	(76,2)	(121,3)	(-1,1)	(236,2)	(79,3)	(123,1)	(124,1)	(-26,3)	(134,1)	
L1D -120>	(109,4)	(24,126)	(124,1)	(116,1)	(133,2)	(146,5)	(-114,2)	(-174,7)	(62,2)	(48,2)	(36,2)	(-94,5)	(352,2)	(113,1)	(38,2)	(338,1)	
L1D -119>	(-1,2)	(25,65)	(78,0)	(73,0)	(119,1)	(117,1)	(-4,0)	(126,0)	(116,0)	(100,0)	(120,0)	(122,0)	(77,1)	(121,0)	(124,1)	(125,0)	
L1D -118>	(-88,1)	(116,2)	(-66,1)	(18,22)	(111,2)	(-102,14)	(86,1)	(109,85)	(115,1)	(124,1)	(-1,3)	(68,15)	(78,1)	(149,1)	(144,1)	(117,2)	
L1D -117>	(84,3)	(115,4)	(116,8)	(134,1)	(118,3)	(-1,3)	(75,16)	(113,3)	(114,5)	(117,3)	(35,67)	(121,11)	(34,3)	(74,2)	(80,2)	(120,4)	
L1D -116>	(216,2)	(218,4)	(122,8)	(-1,1)	(117,3)	(74,2)	(114,0)	(118,67)	(212,3)	(109,1)	(-102,1)	(24,1)	(110,1)	(111,2)	(136,1)	(-88,1)	
L1D -115>	(87,99)	(64,0)	(118,3)	(115,0)	(116,0)	(55,8)	(-65,1)	(121,0)	(117,1)	(73,4)	(101,0)	(185,0)	(-41,0)	(214,0)	(1,0)	(1,0)	
L1D -114>	(130,112)	(122,1)	(-14,1)	(-94,87)	(111,8)	(44,2)	(-8,1)	(120,2)	(-96,5)	(82,2)	(76,2)	(-42,2)	(108,1)	(-4,1)	(-200,1)	(-66,3)	
L1D -113>	(112,0)	(111,1)	(114,0)	(2,3)	(25,0)	(84,65)	(42,11)	(118,1)	(152,2)	(180,0)	(116,0)	(4,0)	(1,0)	(1,0)	(1,0)	(1,0)	
L1D -112>	(-220,5)	(-122,59)	(175,67)	(-88,9)	(-56,7)	(66,4)	(112,1)	(-72,8)	(49,25)	(-100,16)	(145,3)	(64,11)	(170,3)	(-130,1)	(180,30)	(-16,12)	
L1D -111>	(112,3)	(-2,2)	(-3,1)	(109,1)	(1,0)	(1,0)	(1,0)	(1,0)	(1,0)	(1,0)	(1,0)	(1,0)	(1,0)	(1,0)	(1,0)	(1,0)	
L1D -110>	(111,4)	(127,107)	(-98,1)	(-83,1)	(302,96)	(-20,2)	(218,3)	(100,6)	(180,6)	(234,11)	(118,124)	(48,2)	(-32,5)	(-108,102)	(262,4)	(-16,95)	
L1D -109>	(266,107)	(110,1)	(9,0)	(7,1)	(100,0)	(204,0)	(1,0)	(1,0)	(1,0)	(1,0)	(1,0)	(1,0)	(1,0)	(1,0)	(1,0)	(1,0)	
L1D -108>	(324,2)	(118,80)	(15,5)	(204,1)	(28,0)	(-150,1)	(109,1)	(96,29)	(10,2)	(-14,0)	(82,48)	(74,2)	(212,3)	(290,3)	(210,62)	(-242,3)	
L1D -107>	(1,0)	(21,0)	(15,0)	(52,0)	(64,0)	(24,0)	(65,28)	(5,9)	(-4,0)	(-150,0)	(-19,0)	(-15,0)	(-2,0)	(109,87)	(16,4)	(8,16)	
L1D -106>	(122,14)	(1,16)	(15,11)	(-36,1)	(-50,11)	(-6,1)	(-94,63)	(-90,2)	(13,3)	(-126,1)	(268,5)	(14,2)	(76,5)	(128,1)	(96,83)	(260,5)	
L1D -105>	(-20,79)	(104,0)	(14,0)	(7,14)	(-4,0)	(12,74)	(-1,31)	(4,37)	(17,0)	(103,0)	(1,0)	(1,0)	(1,0)	(1,0)	(1,0)	(1,0)	
L1D -104>	(96,5)	(136,2)	(122,1)	(5,2)	(-1,2)	(124,1)	(143,2)	(52,65)	(142,1)	(200,1)	(47,14)	(144,2)	(4,2)	(12,7)	(145,0)	(-2,0)	
L1D -103>	(143,1)	(103,1)	(146,1)	(-1,0)	(104,0)	(12,87)	(-2,0)	(18,2)	(4,53)	(17,1)	(63,5)	(138,0)	(7,1)	(144,1)	(1,54)	(52,5)	
L1D -102>	(86,76)	(-2,9)	(116,15)	(-36,35)	(194,1)	(234,41)	(-234,6)	(-80,10)	(74,17)	(12,3)	(66,57)	(178,5)	(326,3)	(58,5)	(184,8)	(4,1)	
L1D -101>	(-4,32)	(113,2)	(146,4)	(-121,27)	(0,4)	(-41,4)	(145,22)	(-1,3)	(142,8)	(102,16)	(144,2)	(141,9)	(100,11)	(140,1)	(103,2)	(-32,1)	
L1D -100>	(308,120)	(17,2)	(135,1)	(-158,1)	(108,120)	(288,94)	(-64,1)	(141,2)	(-128,2)	(202,1)	(145,1)	(220,90)	(-8,67)	(86,1)	(1,3)	(132,1)	
L1D -99>	(38,22)	(145,3)	(104,1)	(-10,3)	(139,2)	(146,1)	(-4,125)	(102,1)	(141,3)	(101,11)	(-123,28)	(103,2)	(94,1)	(97,1)	(98,32)	(142,2)	
L1D -98>	(-2,7)	(-22,78)	(84,15)	(-72,2)	(291,2)	(236,2)	(178,3)	(-112,16)	(66,5)	(62,1)	(30,1)	(-92,35)	(194,3)	(-188,10)	(170,1)	(-167,5)	
L1D -97>	(-186,7)	(132,1)	(103,1)	(137,0)	(140,0)	(-122,1)	(145,1)	(93,0)	(32,1)	(94,0)	(128,0)	(99,0)	(1,0)	(141,0)	(68,0)	(-170,70)	
L1D -96>	(132,6)	(142,1)	(20,72)	(130,64)	(16,7)	(1,9)	(-63,45)	(-16,1)	(-98,13)	(216,69)	(148,3)	(-112,7)	(208,6)	(100,59)	(314,2)	(10,1)	
L1D -95>	(93,6)	(-2,56)	(29,42)	(97,36)	(-29,18)	(150,78)	(9,26)	(361,56)	(96,7)	(-4,4)	(146,1)	(0,5)	(125,9)	(224,6)	(263,7)	(17,8)	
L1D -94>	(-70,107)	(2,95)	(51,9)	(28,85)	(150,3)	(-32,58)	(198,10)	(1,8)	(-244,3)	(-1,2)	(83,1)	(-6,32)	(52,4)	(216,8)	(152,3)	(153,4)	
L1D -93>	(142,2)	(90,35)	(0,68)	(27,24)	(144,9)	(92,14)	(124,10)	(51,66)	(52,4)	(134,2)	(55,5)	(146,11)	(1,5)	(152,2)	(95,1)	(93,60)	
L1D -92>	(244,1)	(24,46)	(90,2)	(84,55)	(20,82)	(28,20)	(-293,3)	(-28,4)	(50,3)	(26,14)	(-50,13)	(96,84)	(210,58)	(-30,85)	(52,17)	(104,2)	
L1D -91>	(151,1)	(118,1)	(144,1)	(86,0)	(43,0)	(87,0)	(91,99)	(-16,0)	(85,0)	(133,0)	(142,0)	(-12,8)	(-13,3)	(94,0)	(2,0)	(153,0)	
L1D -90>	(91,80)	(133,3)	(48,3)	(88,4)	(18,3)	(220,108)	(9,11)	(254,8)	(81,1)	(120,6)	(260,5)	(-34,125)	(68,3)	(184,7)	(-174,3)	(-176,4)	
L1D -89>	(84,4)	(42,1)	(15,1)	(127,1)	(-16,74)	(-8,4)	(131,1)	(129,2)	(-9,1)	(91,1)	(94,1)	(146,1)	(90,1)	(-24,0)	(133,2)	(132,1)	
L1D -88>	(48,90)	(232,15)	(-10,1)	(1,16)	(72,92)	(-8,5)	(-120,90)	(133,2)	(-12,83)	(0,10)	(-32,72)	(-246,7)	(146,1)	(137,1)	(28,102)	(276,1)	
L1D -87>	(32,11)	(51,7)	(89,32)	(94,5)	(130,12)	(88,5)	(1,33)	(70,17)	(82,7)	(154,5)	(133,16)	(5,1)	(146,21)	(134,3)	(145,7)	(137,3)	
L1D -86>	(-88,71)	(-58,96)	(129,1)	(-294,88)	(8,4)	(258,1)	(119,1)	(214,2)	(-14,4)	(13,4)	(82,2)	(-18,7)	(168,32)	(10,7)	(-44,7)	(-26,7)	
L1D -85>	(-1,88)	(12,40)	(45,0)	(129,1)	(88,0)	(92,1)	(44,1)	(146,1)	(147,0)	(94,1)	(126,1)	(90,0)	(140,0)	(1,1)	(86,0)	(133,0)	
L1D -84>	(172,61)	(224,5)	(314,11)	(302,99)	(146,2)	(219,1)	(106,2)	(-236,21)	(13,56)	(-204,21)	(98,9)	(-238,8)	(18,82)	(82,9)	(158,1)	(-102,6)	
L1D -83>	(81,78)	(-1,51)	(83,44)	(3,1)	(124,1)	(126,1)	(85,1)	(90,1)	(0,2)	(195,1)	(127,1)	(5,3)	(31,2)	(138,2)	(82,1)	(43,2)	
L1D -82>	(-222,1)	(8,11)	(-41,7)	(1,58)	(-2,14)	(84,88)	(89,1)	(2,27)	(25,12)	(60,24)	(88,3)	(308,1)	(78,19)	(80,0)	(246,5)	(30,2)	
L1D -81>	(81,115)	(146,1)	(100,2)	(94,2)	(-1,4)	(126,2)	(124,2)	(-23,16)	(79,1)	(-27,41)	(5,3)	(82,3)	(-9,1)	(78,4)	(0,42)	(6,19)	
L1D -80>	(96,51)	(31,1)	(138,97)	(-128,1)	(-86,1)	(188,6)	(260,45)	(9,1)	(36,1)	(318,4)	(6,2)	(82,7)	(1,8)	(106,1)	(-2,1)	(-7,50)	
L1D -79>	(22,26)	(61,4)	(124,11)	(76,14)	(9,1)	(78,28)	(-20,2)	(77,12)	(83,10)	(111,50)	(81,16)	(1,73)	(-14,7)	(146,7)	(-1,9)	(0,10)	
L1D -78>	(278,29)	(77,74)	(1,1)	(14,39)	(40,29)	(0,10)	(-80,6)	(116,11)	(-30,2)	(128,65)	(246,31)	(-16,3)	(-2,2)	(8,31)	(-1,64)	(2,3)	
L1D -77>	(13,64)	(78,1)	(40,1)	(134,1)	(81,0)	(61,1)	(79,2)	(117,0)	(121,1)	(120,1)	(118,0)	(94,1)	(154,0)	(73,1)	(100,0)	(35,0)	
L1D -76>	(73,3)	(79,2)	(-2,20)	(-13,91)	(338,83)	(2,5)	(-5,2)	(98,5)	(-48,96)	(132,2)	(314,3)	(-138,88)	(-1,4)	(-130,15)	(116,1)	(75,3)	
L1D -75>	(12,21)	(361,5)	(37,2)	(61,7)	(-6,13)	(33,1)	(-4,68)	(35,7)	(78,4)	(2,11)	(77,6)	(118,6)	(34,12)	(10,13)	(-63,1)	(154,6)	
L1D -74>	(30,13)	(-36,63)	(44,45)	(-128,123)	(6,119)	(69,5)	(72,32)	(75,16)	(84,4)	(32,12)	(10,1)	(-168,10)	(111,6)	(14,6)	(314,98)	(-112,8)	
L1D -73>	(111,3)	(67,83)	(21,2)	(37,2)	(153,1)	(0,1)	(116,3)	(11,1)	(-21,2)	(-177,1)	(118,3)	(121,1)	(-115,0)	(117,1)	(-20,3)	(128,2)	
L1D -72>	(34,12)	(9,3)	(168,3)	(26,8)	(37,3)	(1,5)	(-7,69)	(15,6)	(72,65)	(28,23)	(7,1)	(266,2)	(-48,1)	(-208,2)	(-122,53)	(-16,45)	
L1D -71>	(71,18)	(7,25)	(-138,15)	(70,84)	(-21,66)	(-150,13)	(73,35)	(132,17)	(-20,90)	(-7,11)	(-1,26)	(0,39)	(9,26)	(75,1)	(-10,63)	(11,16)	
L1D -70>	(-70,108)	(37,2)	(-80,1)	(154,2)	(384,3)	(69,2)	(106,2)	(336,105)	(35,83)	(132,1)	(308,2)	(-188,10)	(30,54)	(-38,5)	(118,13)	(28,106)	
L1D -69>	(109,69)	(18,26)	(1,9)	(-82,1)	(61,0)	(-8,0)	(43,0)	(37,0)	(10,1)	(12,26)	(131,0)	(-3,0)	(95,0)	(21,1)	(7,0)	(1,0)	
L1D -68>	(-2,115)	(0,3)	(-4,28)	(37,8)	(11,10)	(106,3)	(308,8)	(-6,7)	(48,13)	(170,5)	(26,8)	(186,8)	(61,2)	(114,2)	(180,1)	(130,1)	
L1D -67>	(-138,115)	(1,56)	(2,3)	(6,1)	(61,1)	(122,5)	(15,5)	(42,1)	(43,3)	(12,39)	(94,1)	(66,1)	(-14,1)	(128,1)	(75,0)	(25,2)	
L1D -66>	(194,100)	(-114,1)	(84,26)	(-148,10)	(92,24)	(96,21)	(26,9)	(12,113)	(-26,122)	(-176,74)	(24,5)	(64,6)	(20,6)	(184,106)	(298,100)	(-28,10)	
L1D -65>	(-10,15)	(31,12)	(23,24)	(-116,13)	(-154,9)	(-32,13)	(42,1)	(66,8)	(27,11)	(2,67)	(13,0)	(6,15)	(0,9)	(64,23)	(43,21)	(-69,6)	
L1D -64>	(64,123)	(62,20)	(0,3)	(-136,2)	(-244,17)	(59,1)	(53,1)	(1,7)	(65,1)	(26,17)	(-214,1)	(88,1)	(90,15)	(218,1)	(79,1)	(-115,1)	
L1D -63>	(141,111)	(95,84)	(21,5)	(-12,4)	(-184,14)	(-8,1)	(42,2)	(58,1)	(-177,1)	(-9,4)	(1,1)	(-1,2)	(62,2)	(63,21)	(26,3)	(43,6)	
L1D -62>	(-32,64)	(-8,3)	(90,32)	(4,40)	(20,3)	(118,45)	(43,3)	(54,14)	(26,1)	(-190,52)	(48,3)	(59,1)	(56,2)	(58,1)	(1,1)	(102,2)	
L1D -61>	(-1,74)	(53,1)	(1,5)	(58,13)	(19,70)	(60,18)	(42,11)	(-3,3)	(63,3)	(62,5)	(-10,16)	(59,52)	(-122,20)	(-84,55)	(-72,12)	(43,22)	
L1D -60>	(-90,1)	(-196,77)	(5,4)	(59,34)	(-140,60)	(43,9)	(61,25)	(62,37)	(8,5)	(67,7)	(57,21)	(-2,14)	(-8,80)	(18,7)	(42,4)	(63,27)	
L1D -59>	(17,106)	(60,39)	(61,88)	(58,71)	(-1,44)	(57,24)	(47,8)	(51,20)	(1,10)	(44,12)	(-4,37)	(42,25)	(64,18)	(43,63)	(-13,56)	(59,1)	
L1D -58>	(-42,71)	(48,16)	(16,18)	(-188,66)	(37,4)	(-20,4)	(-58,17)	(118,20)	(44,3)	(-18,64)	(-62,51)	(-190,5)	(326,85)	(115,84)	(-126,65)	(60,5)	
L1D -57>	(56,10)	(47,14)	(42,22)	(-47,34)	(15,47)	(37,67)	(60,9)	(-20,68)	(-127,1)	(-23,70)	(43,23)	(55,9)	(1,14)	(61,19)	(-21,19)	(59,5)	
L1D -56>	(2,64)	(294,6)	(65,0)	(-94,0)	(4,1)	(240,0)	(54,0)	(-8,0)	(16,1)	(-88,0)	(72,0)	(120,0)	(40,0)	(-126,0)	(1,0)	(55,1)	
L1D -55>	(12,2)	(13,51)	(53,11)	(-18,4)	(37,104)	(43,33)	(58,2)	(44,3)	(11,3)	(-3,4)	(5,1)	(42,10)	(14,6)	(266,1)	(-154,7)	(133,20)	
L1D -54>	(40,35)	(318,112)	(1,36)	(22,1)	(-98,4)	(42,2)	(12,10)	(-24,5)	(38,11)	(60,6)	(146,4)	(76,9)	(43,10)	(37,8)	(10,4)	(11,4)	
L1D -53>	(53,9)	(54,11)	(51,47)	(11,105)	(1,13)	(52,1)	(146,76)	(93,7)	(94,6)	(2,2)	(57,6)	(10,65)	(42,33)	(60,18)	(43,36)	(21,4)	
L1D -52>	(51,2)	(47,2)	(50,2)	(-46,5)	(9,2)	(10,9)	(-4,1)	(-1,4)	(-5,1)	(1,108)	(-32,2)	(-136,1)	(13,3)	(-52,2)	(-98,3)	(114,14)	
L1D -51>	(-1,43)	(53,12)	(52,44)	(9,56)	(39,79)	(50,55)	(1,85)	(51,65)	(-9,7)	(49,41)	(40,8)	(10,1)	(42,27)	(43,91)	(-4,47)	(92,15)	
L1D -50>	(136,77)	(272,98)	(-80,7)	(22,17)	(1,5)	(10,11)	(56,16)	(51,10)	(-70,5)	(50,11)	(-68,1)	(122,4)	(13,8)	(16,13)	(200,49)	(48,4)	
L1D -49>	(1,100)	(-5,9)	(50,5)	(-1,27)	(12,50)	(5,5)	(7,13)	(43,29)	(6,5)	(2,19)	(38,13)	(49,48)	(57,1)	(51,9)	(44,14)	(90,3)	
L1D -48>	(16,72)	(12,56)	(46,57)	(-106,60)	(-250,1)	(-354,69)	(136,3)	(4,29)	(10,28)	(-2,72)	(48,18)	(2,6)	(-26,3)	(180,2)	(-80,66)	(-1,27)	
L1D -47>	(2,72)	(51,74)	(41,6)	(46,10)	(-1,15)	(5,29)	(1,6)	(50,25)	(45,1)	(37,5)	(3,20)	(-10,3)	(44,16)	(47,84)	(43,80)	(52,29)	
L1D -46>	(40,10)	(41,5)	(1,86)	(-92,32)	(127,9)	(266,29)	(47,81)	(50,28)	(-108,26)	(68,4)	(46,7)	(-234,12)	(-1,30)	(14,13)	(-182,1)	(-222,2)	
L1D -45>	(27,12)	(1,23)	(53,1)	(50,113)	(-5,12)	(-204,46)	(45,126)	(-1,52)	(43,76)	(3,86)	(47,25)	(2,48)	(25,34)	(13,15)	(48,60)	(41,106)	
L1D -44>	(48,9)	(42,12)	(29,17)	(43,8)	(0,3)	(-36,3)	(44,93)	(46,40)	(40,30)	(-31,1)	(-1,20)	(41,34)	(33,7)	(47,4)	(-6,4)	(50,3)	
L1D -43>	(9,72)	(-92,24)	(46,12)	(42,70)	(47,11)	(43,48)	(3,7)	(30,23)	(38,30)	(-1,52)	(40,69)	(6,31)	(-2,22)	(33,12)	(44,1)	(41,57)	
L1D -42>	(-68,1)	(41,69)	(43,41)	(40,78)	(3,5)	(42,18)	(138,17)	(6,5)	(35,16)	(34,10)	(-4,14)	(39,29)	(19,3)	(45,33)	(37,14)	(44,50)	
L1D -41>	(41,95)	(45,23)	(38,32)	(47,44)	(34,14)	(71,7)	(25,21)	(60,1)	(50,15)	(119,39)	(33,11)	(-2,13)	(19,5)	(42,32)	(27,11)	(43,63)	
L1D -40>	(39,119)	(-152,53)	(-60,14)	(43,85)	(44,31)	(34,53)	(-196,8)	(-202,42)	(1,16)	(-206,1)	(45,22)	(41,17)	(-2,50)	(40,24)	(-5,57)	(42,16)	
L1D -39>	(-6,2)	(39,18)	(35,3)	(38,85)	(-1,27)	(4,1)	(-10,1)	(-20,5)	(-2,3)	(-3,5)	(46,1)	(43,1)	(48,1)	(27,1)	(41,8)	(42,4)	
L1D -38>	(-62,18)	(-86,63)	(-2,15)	(-350,73)	(-66,77)	(38,46)	(-148,68)	(37,3)	(14,78)	(12,6)	(49,4)	(1,85)	(41,9)	(-18,34)	(36,9)	(42,8)	
L1D -37>	(-22,44)	(38,21)	(37,120)	(-2,15)	(42,19)	(44,6)	(39,13)	(-1,18)	(-20,20)	(34,10)	(36,15)	(-35,3)	(-4,18)	(31,8)	(40,42)	(41,25)	
L1D -36>	(48,116)	(-67,115)	(66,104)	(11,1)	(-4,8)	(-6,16)	(56,60)	(7,25)	(36,60)	(82,3)	(94,4)	(-290,75)	(-72,14)	(35,11)	(-1,6)	(-8,5)	
L1D -35>	(35,74)	(40,12)	(41,13)	(-4,5)	(34,11)	(-7,20)	(42,7)	(-171,12)	(-45,12)	(36,7)	(-6,13)	(72,1)	(14,22)	(38,9)	(-3,13)	(6,6)	
L1D -34>	(38,105)	(-7,2)	(10,1)	(-2,6)	(44,1)	(34,8)	(-316,1)	(14,1)	(-3,1)	(-1,1)	(-106,1)	(16,1)	(-234,18)	(-92,19)	(-93,1)	(36,1)	
L1D -33>	(33,78)	(44,2)	(32,8)	(-6,2)	(41,9)	(34,6)	(-9,4)	(-3,1)	(-7,9)	(38,3)	(40,1)	(-1,11)	(35,9)	(36,7)	(42,11)	(-8,2)	
L1D -32>	(36,92)	(58,77)	(-8,15)	(-1,20)	(10,62)	(14,65)	(-70,1)	(-240,45)	(31,12)	(-2,15)	(-86,3)	(-7,4)	(230,34)	(-66,64)	(264,27)	(32,34)	
L1D -31>	(-2,16)	(-7,25)	(31,71)	(12,3)	(-6,2)	(30,6)	(34,5)	(-1,27)	(32,16)	(5,31)	(2,12)	(13,5)	(8,15)	(-9,11)	(0,5)	(24,2)	
L1D -30>	(-8,18)	(-126,47)	(-1,14)	(46,14)	(-62,22)	(-23,46)	(362,69)	(-38,69)	(37,15)	(-96,1)	(112,65)	(-10,11)	(3,11)	(8,10)	(30,15)	(124,70)	
L1D -29>	(42,3)	(31,66)	(8,7)	(-11,0)	(-1,9)	(32,54)	(5,3)	(3,12)	(29,44)	(2,14)	(17,48)	(28,4)	(-10,3)	(6,42)	(41,4)	(-12,4)	
L1D -28>	(-13,5)	(238,30)	(-1,5)	(3,2)	(34,73)	(41,4)	(-74,36)	(160,13)	(28,45)	(-56,57)	(2,13)	(75,10)	(8,4)	(1,8)	(242,5)	(5,4)	
L1D -27>	(27,86)	(-1,15)	(97,123)	(108,39)	(28,8)	(26,15)	(1,2)	(6,8)	(-13,4)	(-14,4)	(3,3)	(-51,10)	(8,68)	(-15,12)	(2,6)	(29,15)	
L1D -26>	(0,5)	(-1,10)	(28,3)	(1,16)	(-96,90)	(67,10)	(-192,92)	(2,10)	(6,13)	(-64,10)	(-118,1)	(27,9)	(-16,3)	(26,38)	(25,6)	(-52,72)	
L1D -25>	(25,37)	(4,3)	(-23,103)	(-20,13)	(6,1)	(-16,8)	(1,4)	(81,21)	(26,15)	(-12,14)	(82,32)	(-7,5)	(3,3)	(-14,2)	(63,2)	(13,2)	
L1D -24>	(9,38)	(-258,77)	(338,13)	(1,24)	(41,3)	(-80,19)	(2,6)	(3,68)	(-1,13)	(-124,1)	(12,15)	(24,38)	(18,5)	(4,8)	(140,90)	(16,5)	
L1D -23>	(182,1)	(-3,3)	(18,55)	(22,9)	(1,10)	(24,5)	(-52,8)	(-1,52)	(4,84)	(23,25)	(25,35)	(17,12)	(390,7)	(12,114)	(-5,14)	(6,5)	
L1D -22>	(104,10)	(19,15)	(96,11)	(20,16)	(38,65)	(21,11)	(326,55)	(22,39)	(254,68)	(23,12)	(-13,45)	(6,18)	(-1,5)	(18,17)	(3,1)	(16,7)	
L1D -21>	(20,7)	(2,1)	(13,45)	(8,56)	(4,6)	(1,6)	(-10,36)	(3,4)	(6,21)	(-1,10)	(21,16)	(-4,6)	(15,79)	(18,27)	(312,5)	(5,96)	
L1D -20>	(311,31)	(-3,35)	(18,59)	(3,1)	(5,28)	(17,43)	(14,9)	(20,126)	(229,39)	(95,9)	(289,18)	(22,59)	(16,40)	(-1,39)	(162,22)	(143,11)	
L1D -19>	(14,7)	(13,6)	(10,8)	(6,51)	(18,10)	(-9,66)	(152,18)	(4,78)	(63,1)	(3,5)	(-4,25)	(15,14)	(16,8)	(-42,7)	(8,5)	(19,4)	
L1D -18>	(84,1)	(-2,2)	(18,21)	(-308,75)	(-90,76)	(-252,75)	(-63,76)	(60,47)	(66,53)	(-42,12)	(4,77)	(6,26)	(3,77)	(14,24)	(54,68)	(15,76)	
L1D -17>	(15,3)	(14,3)	(48,5)	(0,118)	(11,3)	(4,27)	(3,5)	(2,9)	(-2,8)	(28,3)	(1,5)	(26,1)	(6,2)	(-60,1)	(13,12)	(17,1)	
L1D -16>	(6,12)	(-1,6)	(12,14)	(1,90)	(276,36)	(4,100)	(2,17)	(36,44)	(64,40)	(8,14)	(30,46)	(16,11)	(3,33)	(42,1)	(41,9)	(98,5)	
L1D -15>	(10,21)	(18,12)	(13,40)	(14,15)	(5,73)	(4,110)	(11,69)	(12,45)	(24,18)	(9,60)	(-42,15)	(1,33)	(25,1)	(2,7)	(6,76)	(-40,10)	
L1D -14>	(-5,66)	(21,10)	(6,32)	(4,112)	(-42,19)	(1,18)	(13,1)	(12,25)	(11,23)	(218,64)	(43,16)	(5,28)	(8,26)	(-96,74)	(2,13)	(23,11)	
L1D -13>	(1,11)	(2,10)	(4,28)	(12,9)	(10,12)	(-12,22)	(-8,72)	(6,30)	(5,35)	(38,1)	(3,24)	(52,13)	(8,4)	(-3,27)	(-42,9)	(13,6)	
L1D -12>	(1,47)	(4,29)	(-42,13)	(-4,100)	(18,23)	(-84,13)	(-130,31)	(-46,27)	(-82,28)	(6,20)	(-7,66)	(-234,27)	(2,60)	(-8,31)	(23,1)	(-30,34)	
L1D -11>	(11,98)	(8,7)	(6,19)	(5,15)	(4,115)	(-46,27)	(-60,4)	(3,14)	(20,12)	(16,1)	(-42,10)	(-107,8)	(-5,18)	(-7,22)	(22,5)	(1,18)	
L1D -10>	(6,31)	(3,26)	(-5,66)	(12,46)	(-42,10)	(106,21)	(2,13)	(10,23)	(-156,19)	(7,7)	(5,18)	(1,25)	(18,12)	(80,1)	(4,57)	(9,15)	
L1D -9>	(-42,14)	(28,1)	(5,14)	(2,33)	(6,31)	(9,27)	(18,55)	(-1,17)	(8,41)	(12,18)	(4,71)	(-7,48)	(7,17)	(17,41)	(15,30)	(-11,29)	
L1D -8>	(1,12)	(8,95)	(99,15)	(71,2)	(-32,23)	(23,19)	(-2,24)	(14,52)	(205,20)	(4,46)	(15,20)	(-8,25)	(6,9)	(-42,11)	(7,27)	(2,45)	
L1D -7>	(1,13)	(6,40)	(-11,1)	(2,6)	(7,95)	(4,14)	(12,14)	(-9,18)	(10,30)	(15,82)	(22,42)	(5,17)	(89,15)	(8,9)	(-42,3)	(9,18)	
L1D -6>	(-8,1)	(4,27)	(9,9)	(-1,17)	(10,7)	(8,27)	(-2,71)	(-15,15)	(1,60)	(12,11)	(3,53)	(18,6)	(-114,17)	(-13,7)	(28,24)	(5,57)	
L1D -5>	(-1,47)	(13,23)	(8,28)	(-25,64)	(19,16)	(1,73)	(-3,63)	(-10,19)	(-142,28)	(5,23)	(4,26)	(-11,1)	(17,28)	(138,16)	(-15,14)	(-28,16)	
L1D -4>	(-21,17)	(174,35)	(-1,30)	(103,21)	(3,86)	(-3,82)	(2,10)	(-14,1)	(175,20)	(79,42)	(-15,63)	(-11,68)	(-4,28)	(9,9)	(-5,48)	(26,23)	
L1D -3>	(3,58)	(-13,1)	(-2,23)	(1,26)	(2,39)	(-11,48)	(-15,34)	(-140,47)	(150,115)	(-4,28)	(-5,51)	(0,28)	(4,110)	(-7,81)	(175,12)	(-12,19)	
L1D -2>	(1,21)	(-15,11)	(-5,1)	(13,20)	(2,70)	(4,14)	(-1,11)	(-42,3)	(-3,12)	(19,8)	(-171,6)	(-6,8)	(3,4)	(-13,5)	(-18,7)	(40,3)	
L1D -1>	(-11,12)	(-170,10)	(-1,84)	(172,16)	(-17,1)	(-171,31)	(173,31)	(3,14)	(1,13)	(4,21)	(-3,4)	(2,11)	(-2,11)	(0,24)	(-19,7)	(-15,12)	
L1D 0>	(195,0)	(81,0)	(0,67)	(-81,1)	(-1,0)	(4,1)	(3,0)	(-2,1)	(-9,1)	(5,0)	(-12,0)	(11,0)	(2,0)	(-7,0)	(1,3)	(-172,0)	
L1D 1>	(1,64)	(2,10)	(5,0)	(6,0)	(-1,2)	(3,1)	(12,0)	(0,13)	(21,1)	(426,0)	(-3,1)	(11,0)	(15,1)	(-173,1)	(-18,1)	(-2,0)	
L1D 2>	(2,52)	(-2,24)	(-42,2)	(63,1)	(-1,12)	(43,1)	(1,103)	(-8,9)	(0,83)	(3,10)	(4,5)	(54,14)	(6,4)	(17,2)	(-172,10)	(-173,6)	
L1D 3>	(2,46)	(-1,37)	(-345,11)	(6,8)	(3,22)	(1,111)	(-347,12)	(408,8)	(0,19)	(-3,13)	(170,10)	(14,1)	(171,20)	(147,3)	(-173,9)	(-2,14)	
L1D 4>	(-346,40)	(2,55)	(-176,69)	(-1,46)	(18,1)	(3,32)	(6,12)	(168,66)	(8,25)	(-174,55)	(170,20)	(1,49)	(-5,18)	(0,23)	(-6,21)	(-4,17)	
L1D 5>	(-42,10)	(-69,51)	(-5,38)	(1,90)	(0,29)	(-17,1)	(13,32)	(-2,39)	(8,14)	(-30,16)	(3,22)	(18,18)	(11,24)	(9,26)	(-4,50)	(49,116)	
L1D 6>	(-15,43)	(18,40)	(14,40)	(-4,63)	(13,1)	(2,107)	(-7,74)	(-82,27)	(-128,30)	(92,20)	(-14,17)	(-12,31)	(-132,24)	(84,22)	(-6,64)	(94,31)	
L1D 7>	(-5,11)	(-1,7)	(11,50)	(-2,6)	(-7,45)	(0,119)	(41,3)	(27,1)	(-42,7)	(-4,29)	(-6,42)	(-8,2)	(-3,7)	(1,30)	(9,6)	(8,1)	
L1D 8>	(-9,5)	(9,20)	(5,7)	(10,6)	(1,16)	(-19,31)	(-2,1)	(-3,20)	(3,9)	(-4,14)	(6,8)	(194,14)	(-42,5)	(-8,73)	(-1,24)	(8,57)	
L1D 9>	(-2,118)	(38,24)	(-3,68)	(-4,44)	(-6,68)	(-7,66)	(72,2)	(-42,15)	(41,13)	(-1,36)	(1,13)	(-18,54)	(-9,49)	(-5,26)	(12,35)	(18,51)	
L1D 10>	(-2,25)	(-8,37)	(-7,8)	(-1,27)	(-4,26)	(-18,13)	(2,1)	(-72,23)	(-3,81)	(6,19)	(-10,36)	(-6,15)	(-9,14)	(-156,28)	(-19,46)	(-12,7)	
L1D 11>	(-12,49)	(1,121)	(-11,71)	(-4,85)	(0,1)	(-118,60)	(-176,2)	(-8,6)	(-7,4)	(-3,17)	(-1,27)	(-42,11)	(-20,9)	(-10,5)	(-2,14)	(55,5)	
L1D 12>	(-12,71)	(-5,28)	(-1,2)	(39,12)	(63,28)	(144,10)	(-24,26)	(-2,31)	(-20,46)	(-8,15)	(-19,42)	(-3,11)	(-10,11)	(27,77)	(-13,4)	(76,15)	
L1D 13>	(88,3)	(-11,10)	(-7,1)	(27,70)	(-6,22)	(-12,10)	(-20,62)	(-5,18)	(8,12)	(-9,4)	(-13,1)	(-60,1)	(-1,9)	(-2,9)	(-10,7)	(-4,3)	
L1D 14>	(-42,22)	(-11,20)	(-36,25)	(12,48)	(-7,67)	(78,47)	(-2,1)	(176,26)	(-156,34)	(-40,29)	(-10,32)	(-278,40)	(-124,42)	(-314,41)	(-30,45)	(6,14)	
L1D 15>	(-11,39)	(32,12)	(-14,13)	(-127,37)	(-10,60)	(-3,78)	(47,28)	(-13,23)	(65,34)	(11,1)	(-12,25)	(69,31)	(-9,19)	(-4,39)	(0,44)	(-2,15)	
L1D 16>	(-88,47)	(-42,20)	(16,6)	(-16,18)	(-34,48)	(-96,44)	(41,7)	(1,1)	(-14,15)	(-2,29)	(-13,21)	(-4,85)	(-5,5)	(-12,8)	(-3,6)	(-1,98)	
L1D 17>	(142,1)	(-17,67)	(-14,10)	(-2,13)	(-42,5)	(1,8)	(-11,21)	(0,1)	(-13,13)	(-6,1)	(78,3)	(31,6)	(-4,1)	(-3,3)	(-15,3)	(19,11)	
L1D 18>	(-9,95)	(-88,30)	(-92,20)	(-42,18)	(-13,41)	(8,11)	(-17,17)	(72,26)	(-8,29)	(202,31)	(70,24)	(-3,1)	(-58,13)	(-12,60)	(-7,15)	(-29,24)	
L1D 19>	(59,1)	(-17,65)	(44,1)	(-4,39)	(-20,0)	(-16,6)	(-303,17)	(-15,13)	(41,1)	(-18,2)	(-235,2)	(-2,4)	(-42,6)	(-19,5)	(-1,10)	(-3,0)	
L1D 20>	(-14,1)	(-12,24)	(-2,15)	(-19,14)	(-18,6)	(-42,8)	(138,25)	(-22,41)	(4,25)	(-16,7)	(-20,84)	(-15,29)	(-1,11)	(-6,8)	(-17,9)	(-24,7)	
L1D 21>	(-20,11)	(-15,13)	(-21,20)	(-19,41)	(-22,21)	(5,1)	(-1,41)	(-17,19)	(1,11)	(-26,13)	(-42,39)	(-4,24)	(-2,74)	(-3,26)	(-52,17)	(-18,21)	
L1D 22>	(159,41)	(369,27)	(367,38)	(242,54)	(-22,23)	(-23,111)	(140,9)	(-42,22)	(-17,1)	(-18,32)	(-1,9)	(-290,12)	(-19,13)	(137,19)	(-4,37)	(-3,20)	
L1D 23>	(-4,59)	(-5,1)	(-19,55)	(-42,42)	(-21,101)	(-1,17)	(-54,4)	(0,13)	(-20,18)	(-3,24)	(-18,34)	(43,3)	(-9,88)	(-24,41)	(-2,82)	(-23,17)	
L1D 24>	(-55,7)	(-25,35)	(-42,35)	(-1,125)	(-21,37)	(28,30)	(-9,14)	(290,87)	(98,61)	(-5,23)	(158,85)	(-3,30)	(-22,10)	(-52,17)	(72,37)	(-4,1)	
L1D 25>	(-42,22)	(-26,13)	(-48,68)	(-25,16)	(-6,30)	(-40,22)	(-1,3)	(16,8)	(-77,34)	(-21,22)	(-2,25)	(-23,6)	(-22,1)	(-4,15)	(-8,7)	(0,4)	
L1D 26>	(-25,9)	(-29,8)	(-42,70)	(-154,91)	(-22,19)	(0,1)	(-23,14)	(-27,36)	(-41,18)	(-228,77)	(-26,22)	(-3,37)	(31,8)	(-1,104)	(-108,10)	(37,17)	
L1D 27>	(-34,78)	(-36,7)	(-23,1)	(12,6)	(-28,6)	(11,1)	(-29,1)	(-40,3)	(1,2)	(-41,6)	(-42,7)	(-9,4)	(-43,86)	(-4,8)	(-27,1)	(4,5)	
L1D 28>	(-29,32)	(-5,14)	(-21,1)	(58,80)	(66,77)	(-2,69)	(-18,83)	(184,63)	(-41,12)	(-44,12)	(-28,16)	(-42,42)	(182,9)	(2,22)	(-24,84)	(236,82)	
L1D 29>	(11,6)	(-42,78)	(-28,7)	(-29,19)	(-2,4)	(-4,1)	(-41,7)	(-6,8)	(-27,6)	(-30,25)	(-40,20)	(2,7)	(-25,7)	(0,4)	(-24,3)	(1,7)	
L1D 30>	(66,91)	(-30,7)	(-40,18)	(-42,77)	(-1,10)	(-35,15)	(9,2)	(-41,6)	(-39,3)	(-31,26)	(-60,49)	(2,6)	(10,3)	(145,3)	(11,3)	(0,10)	
L1D 31>	(-242,102)	(-42,85)	(-6,25)	(2,10)	(0,18)	(1,20)	(-30,5)	(9,7)	(-31,17)	(-43,10)	(10,20)	(-32,28)	(-40,26)	(-185,121)	(-21,4)	(-41,25)	
L1D 32>	(1,7)	(-42,93)	(-29,26)	(-28,1)	(-32,13)	(-33,29)	(-36,15)	(18,60)	(-1,40)	(-31,27)	(10,10)	(-26,6)	(2,2)	(-27,58)	(0,6)	(-154,58)	
L1D 33>	(6,7)	(-33,38)	(0,5)	(-40,34)	(8,10)	(-1,50)	(-132,1)	(-38,4)	(2,9)	(-2,11)	(4,12)	(-42,118)	(-41,14)	(-34,36)	(5,8)	(-36,3)	
L1D 34>	(-25,1)	(-34,69)	(238,105)	(-350,14)	(1,20)	(-41,5)	(-40,8)	(5,15)	(-14,3)	(4,2)	(41,92)	(-12,100)	(-42,55)	(-35,25)	(10,94)	(-2,3)	
L1D 35>	(-37,7)	(2,12)	(-35,36)	(-40,10)	(-41,5)	(-4,3)	(-171,75)	(4,9)	(-21,19)	(-36,32)	(8,4)	(1,9)	(-39,3)	(-42,76)	(-31,1)	(10,3)	
L1D 36>	(-38,89)	(4,3)	(-200,1)	(-42,67)	(-60,86)	(10,8)	(-41,14)	(-40,15)	(-36,28)	(-256,7)	(-88,100)	(228,44)	(56,3)	(-37,37)	(3,7)	(-62,71)	
L1D 37>	(-6,40)	(-38,50)	(-41,14)	(-37,7)	(-40,27)	(-5,9)	(18,3)	(38,3)	(-42,78)	(1,10)	(-62,1)	(19,5)	(15,4)	(-72,17)	(-2,4)	(-25,7)	
L1D 38>	(11,117)	(16,18)	(-2,3)	(48,16)	(-42,9)	(-63,3)	(-75,1)	(-13,3)	(-50,19)	(-39,28)	(3,2)	(-322,17)	(-30,5)	(136,19)	(-104,5)	(-24,6)	
L1D 39>	(13,4)	(-46,1)	(-13,4)	(-11,3)	(0,3)	(-42,55)	(-44,5)	(-1,7)	(-40,121)	(-5,59)	(-43,10)	(-39,7)	(2,2)	(-14,5)	(10,3)	(-41,11)	
L1D 40>	(-44,19)	(-42,96)	(-46,25)	(-228,44)	(-15,30)	(-43,37)	(-11,13)	(-25,33)	(250,9)	(-41,20)	(-218,1)	(1,8)	(-12,10)	(-40,9)	(-3,12)	(-45,18)	
L1D 41>	(-45,13)	(5,1)	(-9,12)	(-44,31)	(-42,121)	(-346,47)	(-41,22)	(14,10)	(-5,12)	(-8,12)	(-1,80)	(-2,19)	(-4,15)	(-7,14)	(-43,35)	(-3,29)	
L1D 42>	(37,5)	(8,5)	(-43,65)	(-38,10)	(-94,7)	(-36,6)	(-262,5)	(-12,35)	(106,63)	(-8,9)	(58,8)	(-96,12)	(40,39)	(-42,34)	(-15,7)	(-16,11)	
L1D 43>	(-3,12)	(-41,19)	(3,13)	(13,12)	(8,15)	(-40,48)	(-42,102)	(-1,1)	(5,15)	(-25,6)	(-44,13)	(4,4)	(6,8)	(-35,8)	(1,11)	(18,9)	
L1D 44>	(-122,40)	(-41,15)	(-62,19)	(-40,22)	(-1,14)	(204,58)	(-42,112)	(128,52)	(-4,16)	(-44,32)	(-45,18)	(0,5)	(-65,1)	(-43,12)	(-46,4)	(1,10)	
L1D 45>	(-1,11)	(16,2)	(-60,10)	(1,15)	(-42,114)	(-40,11)	(-146,1)	(-5,9)	(-47,1)	(3,2)	(0,4)	(-41,7)	(2,5)	(-44,3)	(-43,5)	(-46,16)	
L1D 46>	(-6,2)	(-2,5)	(-42,91)	(-41,6)	(-60,7)	(98,8)	(81,56)	(-280,36)	(-1,18)	(-43,10)	(-47,17)	(-172,4)	(-4,1)	(-7,5)	(2,21)	(6,11)	
L1D 47>	(-46,82)	(-49,24)	(-2,2)	(-1,2)	(6,1)	(-44,1)	(151,1)	(-42,39)	(-60,1)	(-43,3)	(-25,6)	(-50,1)	(-48,13)	(5,38)	(1,6)	(-37,1)	
L1D 48>	(194,106)	(-58,30)	(28,2)	(-30,108)	(-45,37)	(-242,17)	(190,10)	(-118,76)	(88,16)	(48,112)	(-168,112)	(232,9)	(-66,90)	(-42,107)	(-298,49)	(-49,21)	
L1D 49>	(1,3)	(-11,76)	(-54,2)	(-10,3)	(-137,1)	(10,1)	(-60,2)	(-118,1)	(-42,14)	(11,2)	(-43,3)	(-3,5)	(-50,6)	(4,2)	(-2,3)	(-4,1)	
L1D 50>	(-45,7)	(-188,1)	(-1,3)	(-51,19)	(-42,70)	(-60,5)	(1,9)	(-2,5)	(-5,108)	(-10,72)	(-174,50)	(120,8)	(-47,15)	(-3,9)	(-48,3)	(26,3)	
L1D 51>	(-52,28)	(-50,5)	(-55,5)	(-5,4)	(-48,2)	(-42,73)	(-8,6)	(-53,7)	(-12,8)	(-60,5)	(42,10)	(-120,1)	(-81,3)	(93,6)	(40,1)	(-43,5)	
L1D 52>	(-44,3)	(5,1)	(-11,1)	(18,1)	(-60,1)	(-46,1)	(-53,4)	(-42,24)	(-82,4)	(-9,1)	(-5,111)	(-2,2)	(-43,2)	(-4,1)	(24,3)	(-52,1)	
L1D 53>	(-52,78)	(-7,1)	(1,1)	(-8,1)	(7,1)	(-55,1)	(-42,15)	(-59,1)	(-13,1)	(-43,2)	(-2,1)	(-60,3)	(-49,1)	(-3,1)	(-61,1)	(-10,1)	
L1D 54>	(-109,109)	(-220,1)	(-60,1)	(-202,1)	(-158,17)	(-51,2)	(-20,1)	(-1,4)	(-2,2)	(-9,1)	(-8,5)	(-42,11)	(-134,1)	(5,1)	(-194,1)	(10,1)	
L1D 55>	(-54,15)	(-49,1)	(-43,5)	(-42,116)	(-12,14)	(-2,7)	(-65,10)	(-5,13)	(-59,3)	(1,6)	(-14,13)	(0,6)	(-1,10)	(-3,5)	(-11,6)	(-60,3)	
L1D 56>	(-1,19)	(-81,11)	(-52,26)	(-13,15)	(-54,8)	(152,1)	(-40,103)	(2,12)	(-186,127)	(-51,3)	(-2,13)	(6,4)	(-67,3)	(-19,2)	(1,4)	(-42,91)	
L1D 57>	(-55,3)	(-11,4)	(-60,11)	(-42,83)	(-14,3)	(-52,15)	(-82,55)	(-61,4)	(-12,10)	(-56,2)	(-5,1)	(-1,10)	(-43,4)	(-2,7)	(-58,7)	(-20,4)	
L1D 58>	(-11,82)	(-1,1)	(-182,34)	(36,34)	(-18,1)	(-9,1)	(-42,11)	(-19,1)	(-59,3)	(-13,2)	(136,2)	(-2,2)	(-8,1)	(-60,4)	(-10,1)	(-15,1)	
L1D 59>	(-60,58)	(-3,9)	(-15,8)	(-42,100)	(-58,10)	(-57,1)	(-16,12)	(-11,2)	(-14,7)	(-2,17)	(-61,8)	(-62,6)	(-1,25)	(-63,17)	(-75,3)	(-10,8)	
L1D 60>	(-42,59)	(-66,114)	(4,74)	(-4,10)	(-48,47)	(-24,109)	(-133,3)	(-38,48)	(-60,3)	(-1,15)	(6,20)	(-17,3)	(26,1)	(-2,16)	(14,32)	(-154,10)	
L1D 61>	(-56,10)	(-60,20)	(-42,88)	(-18,15)	(-58,9)	(-43,5)	(-1,8)	(-54,8)	(2,9)	(-4,1)	(16,3)	(-154,4)	(-47,7)	(1,26)	(-59,7)	(9,5)	
L1D 62>	(186,83)	(-112,1)	(-60,16)	(-42,13)	(-1,6)	(-212,8)	(-16,5)	(-59,2)	(-48,2)	(-67,2)	(-19,3)	(4,3)	(-154,3)	(-162,3)	(-49,4)	(-184,51)	
L1D 63>	(-43,11)	(-42,52)	(-59,11)	(3,13)	(-247,126)	(-63,18)	(-44,3)	(-2,7)	(-72,9)	(-76,11)	(-60,58)	(-20,8)	(4,8)	(-74,10)	(-6,3)	(-81,3)	
L1D 64>	(2,2)	(48,14)	(15,1)	(14,1)	(13,1)	(-60,3)	(8,15)	(-2,14)	(-70,3)	(-4,1)	(-212,16)	(-41,2)	(-62,0)	(-42,1)	(-64,97)	(10,0)	
L1D 65>	(-67,70)	(-59,1)	(-97,7)	(-63,2)	(-78,1)	(-42,18)	(-75,2)	(-219,60)	(-1,1)	(-64,39)	(-55,6)	(-57,2)	(-66,7)	(0,1)	(-60,5)	(-22,2)	
L1D 66>	(226,68)	(-202,5)	(112,62)	(-72,47)	(-40,60)	(24,49)	(-58,50)	(-92,73)	(-244,1)	(-54,7)	(-138,57)	(122,6)	(-196,31)	(-18,53)	(-88,2)	(-210,69)	
L1D 67>	(-69,61)	(-2,79)	(-11,1)	(-151,1)	(-65,1)	(-60,6)	(-42,27)	(-152,0)	(-61,1)	(-7,0)	(-24,3)	(1,1)	(-4,2)	(2,0)	(-244,6)	(-57,8)	
L1D 68>	(-60,17)	(-25,2)	(-70,1)	(240,3)	(-74,64)	(226,1)	(118,6)	(-290,20)	(-62,1)	(102,1)	(-67,0)	(302,71)	(-42,13)	(31,1)	(-92,9)	(-222,2)	
L1D 69>	(-72,80)	(-67,1)	(1,1)	(62,0)	(-42,39)	(-60,1)	(42,3)	(-8,0)	(2,3)	(5,1)	(-1,3)	(-57,9)	(-79,1)	(-68,0)	(-66,1)	(-26,0)	
L1D 70>	(-275,112)	(-78,1)	(-42,17)	(-32,100)	(-84,17)	(-180,64)	(102,113)	(-40,7)	(-134,4)	(-60,5)	(-88,8)	(-70,3)	(2,4)	(-94,4)	(-210,8)	(-98,13)	
L1D 71>	(-38,15)	(-10,2)	(-61,2)	(-60,17)	(-42,64)	(-62,3)	(-45,0)	(2,2)	(-69,2)	(-1,9)	(-80,1)	(-43,3)	(-63,4)	(-64,4)	(-146,1)	(-8,2)	
L1D 72>	(-86,44)	(-60,5)	(-42,3)	(-63,12)	(240,21)	(112,31)	(60,2)	(-44,1)	(-38,59)	(-100,2)	(180,3)	(-122,53)	(-78,2)	(-80,66)	(175,5)	(-75,1)	
L1D 73>	(-60,9)	(-23,127)	(-1,1)	(5,1)	(1,6)	(2,2)	(43,1)	(59,1)	(-42,15)	(58,1)	(-11,1)	(-74,15)	(-3,1)	(-47,1)	(42,1)	(-76,21)	
L1D 74>	(160,26)	(16,116)	(-37,1)	(-3,1)	(-316,52)	(-42,2)	(30,2)	(-75,4)	(3,1)	(-96,2)	(1,2)	(2,1)	(-55,1)	(34,1)	(-60,6)	(-11,1)	
L1D 75>	(60,89)	(-63,1)	(-1,1)	(43,4)	(-69,1)	(2,1)	(44,1)	(-41,3)	(1,2)	(-76,4)	(-42,3)	(-13,1)	(-2,1)	(39,1)	(-346,10)	(-60,5)	
L1D 76>	(-106,97)	(-42,2)	(-30,78)	(92,7)	(-60,4)	(30,6)	(40,8)	(-54,5)	(-74,9)	(-78,6)	(39,2)	(-86,3)	(0,1)	(-190,12)	(-32,11)	(-238,1)	
L1D 77>	(42,1)	(3,8)	(17,2)	(-15,7)	(-60,17)	(5,4)	(-37,102)	(-79,9)	(-72,6)	(-42,20)	(-78,32)	(-27,2)	(2,12)	(-3,5)	(-62,47)	(43,13)	
L1D 78>	(-292,112)	(-282,21)	(-76,67)	(-2,125)	(-180,17)	(-42,6)	(-184,1)	(-89,6)	(-66,6)	(152,5)	(260,2)	(-140,3)	(-82,12)	(-119,88)	(24,17)	(102,15)	
L1D 79>	(-127,14)	(-63,3)	(-42,11)	(-76,16)	(42,5)	(38,10)	(-72,35)	(-60,11)	(-71,1)	(-5,6)	(3,5)	(-73,1)	(-75,31)	(-80,8)	(-37,126)	(-58,41)	
L1D 80>	(-74,1)	(-85,15)	(-116,1)	(-106,6)	(-81,9)	(-216,6)	(-32,95)	(94,2)	(-67,5)	(-98,9)	(14,92)	(8,6)	(-46,92)	(246,81)	(-194,1)	(154,75)	
L1D 81>	(-82,114)	(-81,22)	(-84,10)	(-63,1)	(-75,2)	(-104,14)	(-74,1)	(-13,0)	(-42,0)	(-41,0)	(-60,1)	(-4,0)	(-2,0)	(2,0)	(0,1)	(1,0)	
L1D 82>	(-68,5)	(-105,112)	(-82,67)	(24,64)	(-57,1)	(-112,3)	(6,1)	(-78,2)	(-280,3)	(-80,10)	(-26,51)	(-46,7)	(-184,4)	(162,2)	(-83,5)	(14,40)	
L1D 83>	(-85,79)	(-83,108)	(-73,4)	(-86,2)	(-74,1)	(-11,1)	(11,3)	(-20,1)	(-42,2)	(60,1)	(71,1)	(-1,1)	(-3,1)	(3,1)	(-84,3)	(41,2)	
L1D 84>	(164,22)	(-134,15)	(-265,2)	(-83,71)	(-42,7)	(-57,1)	(-102,5)	(35,1)	(-88,5)	(-43,1)	(-230,22)	(-72,1)	(-84,1)	(138,1)	(88,2)	(224,15)	
L1D 85>	(43,2)	(-103,79)	(7,3)	(3,1)	(-92,4)	(-38,1)	(-39,2)	(-60,8)	(49,3)	(2,22)	(-42,13)	(-43,7)	(-85,1)	(5,1)	(236,3)	(42,3)	
L1D 86>	(120,1)	(-18,75)	(43,1)	(-104,0)	(-246,3)	(44,0)	(-85,0)	(42,0)	(1,2)	(-42,1)	(-100,1)	(-258,3)	(-58,7)	(-230,2)	(-87,0)	(-184,0)	
[...]
L1D 480>	(1,0)	(1,0)	(1,0)	(1,0)	(1,0)	(1,0)	(1,0)	(1,0)	(1,0)	(1,0)	(1,0)	(1,0)	(1,0)	(1,0)	(1,0)	(1,0)	
L1D 481>	(1,0)	(1,0)	(1,0)	(1,0)	(1,0)	(1,0)	(1,0)	(1,0)	(1,0)	(1,0)	(1,0)	(1,0)	(1,0)	(1,0)	(1,0)	(1,0)	
L1D 482>	(1,0)	(1,0)	(1,0)	(1,0)	(1,0)	(1,0)	(1,0)	(1,0)	(1,0)	(1,0)	(1,0)	(1,0)	(1,0)	(1,0)	(1,0)	(1,0)	
L1D 483>	(1,0)	(1,0)	(1,0)	(1,0)	(1,0)	(1,0)	(1,0)	(1,0)	(1,0)	(1,0)	(1,0)	(1,0)	(1,0)	(1,0)	(1,0)	(1,0)	
L1D 484>	(1,0)	(1,0)	(1,0)	(1,0)	(1,0)	(1,0)	(1,0)	(1,0)	(1,0)	(1,0)	(1,0)	(1,0)	(1,0)	(1,0)	(1,0)	(1,0)	
L1D 485>	(1,0)	(1,0)	(1,0)	(1,0)	(1,0)	(1,0)	(1,0)	(1,0)	(1,0)	(1,0)	(1,0)	(1,0)	(1,0)	(1,0)	(1,0)	(1,0)	
L1D 486>	(1,0)	(1,0)	(1,0)	(1,0)	(1,0)	(1,0)	(1,0)	(1,0)	(1,0)	(1,0)	(1,0)	(1,0)	(1,0)	(1,0)	(1,0)	(1,0)	
L1D 487>	(1,0)	(1,0)	(1,0)	(1,0)	(1,0)	(1,0)	(1,0)	(1,0)	(1,0)	(1,0)	(1,0)	(1,0)	(1,0)	(1,0)	(1,0)	(1,0)	
L1D 488>	(1,0)	(1,0)	(1,0)	(1,0)	(1,0)	(1,0)	(1,0)	(1,0)	(1,0)	(1,0)	(1,0)	(1,0)	(1,0)	(1,0)	(1,0)	(1,0)	
L1D 489>	(1,0)	(1,0)	(1,0)	(1,0)	(1,0)	(1,0)	(1,0)	(1,0)	(1,0)	(1,0)	(1,0)	(1,0)	(1,0)	(1,0)	(1,0)	(1,0)	
L1D 490>	(1,0)	(1,0)	(1,0)	(1,0)	(1,0)	(1,0)	(1,0)	(1,0)	(1,0)	(1,0)	(1,0)	(1,0)	(1,0)	(1,0)	(1,0)	(1,0)	
L1D 491>	(1,0)	(1,0)	(1,0)	(1,0)	(1,0)	(1,0)	(1,0)	(1,0)	(1,0)	(1,0)	(1,0)	(1,0)	(1,0)	(1,0)	(1,0)	(1,0)	
L1D 492>	(1,0)	(1,0)	(1,0)	(1,0)	(1,0)	(1,0)	(1,0)	(1,0)	(1,0)	(1,0)	(1,0)	(1,0)	(1,0)	(1,0)	(1,0)	(1,0)	
L1D 493>	(1,0)	(1,0)	(1,0)	(1,0)	(1,0)	(1,0)	(1,0)	(1,0)	(1,0)	(1,0)	(1,0)	(1,0)	(1,0)	(1,0)	(1,0)	(1,0)	
L1D 494>	(1,0)	(1,0)	(1,0)	(1,0)	(1,0)	(1,0)	(1,0)	(1,0)	(1,0)	(1,0)	(1,0)	(1,0)	(1,0)	(1,0)	(1,0)	(1,0)	
L1D 495>	(1,0)	(1,0)	(1,0)	(1,0)	(1,0)	(1,0)	(1,0)	(1,0)	(1,0)	(1,0)	(1,0)	(1,0)	(1,0)	(1,0)	(1,0)	(1,0)	
L1D 496>	(1,0)	(1,0)	(1,0)	(1,0)	(1,0)	(1,0)	(1,0)	(1,0)	(1,0)	(1,0)	(1,0)	(1,0)	(1,0)	(1,0)	(1,0)	(1,0)	
L1D 497>	(-2,1)	(1,0)	(1,0)	(1,0)	(1,0)	(1,0)	(1,0)	(1,0)	(1,0)	(1,0)	(1,0)	(1,0)	(1,0)	(1,0)	(1,0)	(1,0)	
L1D 498>	(1,0)	(1,0)	(1,0)	(1,0)	(1,0)	(1,0)	(1,0)	(1,0)	(1,0)	(1,0)	(1,0)	(1,0)	(1,0)	(1,0)	(1,0)	(1,0)	
L1D 499>	(1,0)	(1,0)	(1,0)	(1,0)	(1,0)	(1,0)	(1,0)	(1,0)	(1,0)	(1,0)	(1,0)	(1,0)	(1,0)	(1,0)	(1,0)	(1,0)	
L1D 500>	(1,0)	(1,0)	(1,0)	(1,0)	(1,0)	(1,0)	(1,0)	(1,0)	(1,0)	(1,0)	(1,0)	(1,0)	(1,0)	(1,0)	(1,0)	(1,0)	
L1D 501>	(1,0)	(1,0)	(1,0)	(1,0)	(1,0)	(1,0)	(1,0)	(1,0)	(1,0)	(1,0)	(1,0)	(1,0)	(1,0)	(1,0)	(1,0)	(1,0)	
L1D 502>	(1,0)	(1,0)	(1,0)	(1,0)	(1,0)	(1,0)	(1,0)	(1,0)	(1,0)	(1,0)	(1,0)	(1,0)	(1,0)	(1,0)	(1,0)	(1,0)	
L1D 503>	(1,0)	(1,0)	(1,0)	(1,0)	(1,0)	(1,0)	(1,0)	(1,0)	(1,0)	(1,0)	(1,0)	(1,0)	(1,0)	(1,0)	(1,0)	(1,0)	
L1D 504>	(1,0)	(1,0)	(1,0)	(1,0)	(1,0)	(1,0)	(1,0)	(1,0)	(1,0)	(1,0)	(1,0)	(1,0)	(1,0)	(1,0)	(1,0)	(1,0)	
L1D 505>	(1,0)	(1,0)	(1,0)	(1,0)	(1,0)	(1,0)	(1,0)	(1,0)	(1,0)	(1,0)	(1,0)	(1,0)	(1,0)	(1,0)	(1,0)	(1,0)	
L1D 506>	(1,0)	(1,0)	(1,0)	(1,0)	(1,0)	(1,0)	(1,0)	(1,0)	(1,0)	(1,0)	(1,0)	(1,0)	(1,0)	(1,0)	(1,0)	(1,0)	
L1D 507>	(1,0)	(1,0)	(1,0)	(1,0)	(1,0)	(1,0)	(1,0)	(1,0)	(1,0)	(1,0)	(1,0)	(1,0)	(1,0)	(1,0)	(1,0)	(1,0)	
L1D 508>	(1,0)	(1,0)	(1,0)	(1,0)	(1,0)	(1,0)	(1,0)	(1,0)	(1,0)	(1,0)	(1,0)	(1,0)	(1,0)	(1,0)	(1,0)	(1,0)	
L1D 509>	(1,0)	(1,0)	(1,0)	(1,0)	(1,0)	(1,0)	(1,0)	(1,0)	(1,0)	(1,0)	(1,0)	(1,0)	(1,0)	(1,0)	(1,0)	(1,0)	
L1D 510>	(1,0)	(1,0)	(1,0)	(1,0)	(1,0)	(1,0)	(1,0)	(1,0)	(1,0)	(1,0)	(1,0)	(1,0)	(1,0)	(1,0)	(1,0)	(1,0)	
L1D 511>	(1,0)	(1,0)	(1,0)	(1,0)	(1,0)	(1,0)	(1,0)	(1,0)	(1,0)	(1,0)	(1,0)	(1,0)	(1,0)	(1,0)	(1,0)	(1,0)	

L2C -64>	(1,232)	(-1,92)	(2,179)	(20,13)	(-4,11)	(0,17)	(42,11)	(-44,12)	(44,1)	(5,7)	(-23,14)	(-2,52)	(-22,18)	(3,23)	(-3,75)	(-21,17)	
L2C -63>	(42,5)	(41,4)	(1,1)	(0,1)	(51,1)	(19,1)	(1,0)	(1,0)	(1,0)	(1,0)	(1,0)	(1,0)	(1,0)	(1,0)	(1,0)	(1,0)	
L2C -62>	(19,2)	(0,3)	(1,2)	(2,6)	(41,1)	(1,0)	(1,0)	(1,0)	(1,0)	(1,0)	(1,0)	(1,0)	(1,0)	(1,0)	(1,0)	(1,0)	
L2C -61>	(1,2)	(1,0)	(1,0)	(1,0)	(1,0)	(1,0)	(1,0)	(1,0)	(1,0)	(1,0)	(1,0)	(1,0)	(1,0)	(1,0)	(1,0)	(1,0)	
L2C -60>	(1,1)	(1,0)	(1,0)	(1,0)	(1,0)	(1,0)	(1,0)	(1,0)	(1,0)	(1,0)	(1,0)	(1,0)	(1,0)	(1,0)	(1,0)	(1,0)	
L2C -59>	(8,2)	(2,4)	(15,3)	(29,1)	(22,2)	(1,3)	(24,2)	(16,1)	(23,1)	(14,1)	(1,0)	(1,0)	(1,0)	(1,0)	(1,0)	(1,0)	
L2C -58>	(1,20)	(44,4)	(23,2)	(17,2)	(8,1)	(15,2)	(16,3)	(43,2)	(57,1)	(52,2)	(22,2)	(2,1)	(1,0)	(1,0)	(1,0)	(1,0)	
L2C -57>	(50,0)	(1,178)	(22,0)	(52,0)	(36,0)	(1,0)	(1,0)	(1,0)	(1,0)	(1,0)	(1,0)	(1,0)	(1,0)	(1,0)	(1,0)	(1,0)	
L2C -56>	(51,1)	(21,3)	(20,1)	(27,1)	(1,4)	(-1,5)	(49,5)	(7,1)	(42,1)	(29,1)	(14,1)	(2,1)	(15,1)	(19,1)	(50,3)	(22,1)	
L2C -55>	(27,1)	(21,6)	(20,4)	(13,1)	(1,3)	(5,1)	(-2,4)	(-1,2)	(4,1)	(6,2)	(28,1)	(23,1)	(1,0)	(1,0)	(1,0)	(1,0)	
L2C -54>	(-1,9)	(26,9)	(27,2)	(54,2)	(52,2)	(1,6)	(2,2)	(6,1)	(53,1)	(23,1)	(13,1)	(22,1)	(28,1)	(45,1)	(17,1)	(1,0)	
L2C -53>	(1,7)	(21,5)	(-1,13)	(26,4)	(0,8)	(25,2)	(37,1)	(55,1)	(2,1)	(16,1)	(44,1)	(22,1)	(45,1)	(3,2)	(23,1)	(1,0)	
L2C -52>	(1,32)	(22,10)	(2,1)	(30,1)	(43,2)	(29,2)	(13,9)	(26,5)	(28,7)	(-1,7)	(27,1)	(42,2)	(8,2)	(45,6)	(15,3)	(23,2)	
L2C -51>	(1,10)	(14,15)	(-1,21)	(0,26)	(-4,2)	(8,4)	(-6,25)	(22,3)	(36,2)	(16,7)	(20,2)	(21,4)	(44,3)	(29,8)	(15,25)	(7,22)	
L2C -50>	(36,3)	(9,1)	(-1,29)	(28,10)	(-2,8)	(6,7)	(1,46)	(7,14)	(20,4)	(14,14)	(22,15)	(44,11)	(15,13)	(29,5)	(21,33)	(13,4)	
L2C -49>	(42,2)	(15,7)	(6,8)	(7,5)	(-2,4)	(43,7)	(18,1)	(44,1)	(14,28)	(13,2)	(20,3)	(21,7)	(-8,2)	(2,2)	(28,3)	(22,1)	
L2C -48>	(15,2)	(45,2)	(1,6)	(22,4)	(43,9)	(42,1)	(-1,5)	(-2,3)	(27,2)	(13,3)	(56,1)	(41,1)	(11,1)	(-7,1)	(25,1)	(2,1)	
L2C -47>	(-2,1)	(-1,6)	(9,1)	(45,1)	(44,2)	(24,1)	(1,0)	(1,0)	(1,0)	(1,0)	(1,0)	(1,0)	(1,0)	(1,0)	(1,0)	(1,0)	
L2C -46>	(1,29)	(3,30)	(44,153)	(2,8)	(22,22)	(43,27)	(24,9)	(45,17)	(-1,3)	(23,12)	(27,1)	(53,1)	(0,1)	(-6,1)	(48,2)	(47,2)	
L2C -45>	(22,138)	(21,23)	(43,226)	(1,128)	(-1,72)	(44,71)	(-2,3)	(46,10)	(42,2)	(2,26)	(23,21)	(0,11)	(6,1)	(24,21)	(3,6)	(9,2)	
L2C -44>	(22,109)	(42,10)	(43,167)	(1,170)	(21,38)	(2,13)	(44,41)	(45,8)	(-1,39)	(23,61)	(-2,1)	(0,20)	(24,1)	(46,1)	(-6,1)	(8,0)	
L2C -43>	(42,28)	(21,74)	(23,3)	(44,25)	(1,39)	(43,10)	(22,147)	(-1,54)	(-2,2)	(20,13)	(-8,1)	(45,1)	(0,93)	(24,0)	(19,0)	(2,0)	
L2C -42>	(43,75)	(1,47)	(-1,70)	(42,2)	(21,157)	(20,20)	(7,1)	(22,68)	(41,8)	(44,8)	(0,25)	(-7,1)	(-2,3)	(23,1)	(-3,0)	(-21,0)	
L2C -41>	(-3,4)	(19,52)	(20,100)	(42,65)	(1,149)	(43,205)	(-2,188)	(21,65)	(22,82)	(0,39)	(-1,94)	(40,12)	(44,25)	(7,1)	(18,2)	(63,1)	
L2C -40>	(-1,18)	(1,5)	(-2,15)	(-3,31)	(43,21)	(0,19)	(22,24)	(21,26)	(42,5)	(19,22)	(20,9)	(41,22)	(44,1)	(-5,1)	(-11,2)	(53,1)	
L2C -39>	(1,171)	(9,0)	(42,0)	(19,0)	(38,0)	(17,0)	(1,0)	(1,0)	(1,0)	(1,0)	(1,0)	(1,0)	(1,0)	(1,0)	(1,0)	(1,0)	
L2C -38>	(1,1)	(8,5)	(43,4)	(37,4)	(9,2)	(23,2)	(-5,10)	(-4,1)	(41,1)	(3,4)	(4,1)	(-7,1)	(0,1)	(22,2)	(21,2)	(2,2)	
L2C -37>	(30,8)	(-14,7)	(-20,5)	(36,22)	(-21,6)	(7,3)	(43,5)	(-8,1)	(-6,7)	(23,2)	(8,4)	(2,4)	(1,27)	(-1,2)	(14,2)	(15,7)	
L2C -36>	(-1,65)	(2,15)	(-9,4)	(-22,11)	(-8,12)	(-21,24)	(37,14)	(-19,21)	(-15,8)	(-20,20)	(8,4)	(-14,2)	(1,94)	(30,26)	(35,40)	(29,41)	
L2C -35>	(-16,8)	(1,53)	(15,8)	(-21,15)	(-1,36)	(0,7)	(-20,9)	(-22,27)	(-15,7)	(6,9)	(-14,16)	(29,9)	(-8,17)	(7,1)	(14,10)	(21,31)	
L2C -34>	(-3,6)	(28,16)	(14,3)	(20,6)	(21,13)	(-4,23)	(-9,23)	(-23,7)	(-21,19)	(-1,73)	(6,4)	(-2,4)	(-10,6)	(-22,13)	(-8,7)	(1,4)	
L2C -33>	(4,1)	(1,1)	(2,2)	(-21,1)	(24,1)	(-10,38)	(12,6)	(-5,15)	(-9,10)	(-4,2)	(11,7)	(-1,9)	(-8,2)	(-16,1)	(-3,3)	(-12,1)	
L2C -32>	(-7,1)	(-21,8)	(-1,3)	(18,1)	(1,4)	(-9,1)	(0,1)	(10,1)	(29,1)	(51,1)	(-6,1)	(11,1)	(32,1)	(-16,1)	(-11,1)	(6,1)	
L2C -31>	(21,2)	(43,4)	(26,2)	(30,1)	(-20,2)	(24,3)	(3,4)	(1,4)	(9,1)	(27,1)	(13,3)	(-22,3)	(37,1)	(-13,4)	(-21,6)	(-1,3)	
L2C -30>	(22,3)	(-1,5)	(1,33)	(-21,5)	(-22,3)	(-6,3)	(0,3)	(8,7)	(-20,1)	(-14,1)	(36,6)	(16,21)	(-3,1)	(14,16)	(10,3)	(7,1)	
L2C -29>	(1,47)	(22,7)	(-8,5)	(-21,39)	(7,5)	(8,9)	(-1,51)	(43,5)	(-20,2)	(-14,4)	(0,4)	(15,103)	(36,2)	(23,7)	(-7,6)	(-22,8)	
L2C -28>	(21,220)	(8,11)	(14,60)	(-1,54)	(27,1)	(-7,2)	(19,2)	(-22,39)	(20,12)	(1,20)	(4,2)	(15,45)	(-21,26)	(37,2)	(7,4)	(-20,6)	
L2C -27>	(-1,25)	(1,17)	(-22,4)	(26,3)	(27,19)	(-21,5)	(6,6)	(42,3)	(2,3)	(0,3)	(21,3)	(14,8)	(19,1)	(43,5)	(3,3)	(13,13)	
L2C -26>	(-5,2)	(-8,2)	(27,4)	(0,5)	(-1,10)	(1,9)	(4,5)	(14,9)	(5,5)	(20,9)	(21,10)	(19,13)	(33,9)	(-22,12)	(-13,1)	(55,1)	
L2C -25>	(1,17)	(25,11)	(2,2)	(-1,6)	(3,6)	(12,7)	(4,3)	(0,6)	(7,2)	(6,2)	(-21,1)	(19,3)	(16,1)	(11,2)	(45,2)	(23,3)	
L2C -24>	(22,178)	(21,69)	(43,168)	(23,16)	(46,22)	(-21,206)	(3,39)	(-19,9)	(2,19)	(1,161)	(-1,21)	(-20,2)	(0,37)	(-22,109)	(44,19)	(45,23)	
L2C -23>	(2,28)	(-21,40)	(43,98)	(21,67)	(22,95)	(-1,94)	(0,37)	(-22,45)	(1,172)	(20,6)	(44,38)	(-20,11)	(42,9)	(24,11)	(45,11)	(46,1)	
L2C -22>	(-21,81)	(21,61)	(-22,21)	(22,70)	(43,80)	(0,29)	(24,1)	(7,0)	(23,38)	(1,192)	(15,0)	(20,3)	(44,32)	(-1,10)	(-2,1)	(42,8)	
L2C -21>	(43,69)	(42,35)	(-21,53)	(21,67)	(22,250)	(-22,89)	(20,47)	(19,3)	(0,14)	(1,62)	(-1,30)	(-23,11)	(15,1)	(44,1)	(-2,5)	(41,2)	
L2C -20>	(19,25)	(-1,94)	(21,90)	(-23,28)	(1,206)	(42,38)	(0,2)	(-2,42)	(44,2)	(43,113)	(41,2)	(-21,100)	(22,106)	(-22,141)	(27,10)	(20,8)	
L2C -19>	(1,61)	(-21,52)	(22,114)	(43,137)	(41,24)	(-1,106)	(-2,195)	(-22,110)	(21,62)	(20,39)	(42,37)	(-24,19)	(19,51)	(-23,24)	(-6,1)	(-3,26)	
L2C -18>	(1,203)	(9,1)	(21,2)	(-24,1)	(5,1)	(22,2)	(-1,3)	(0,2)	(41,1)	(42,1)	(-23,8)	(-14,0)	(-9,0)	(12,0)	(-2,1)	(-10,0)	
L2C -17>	(-24,5)	(-2,6)	(-1,11)	(1,17)	(-5,9)	(-22,4)	(-3,4)	(-12,3)	(-23,6)	(-4,6)	(22,4)	(-6,1)	(20,2)	(15,4)	(16,2)	(-25,2)	
L2C -16>	(-1,10)	(2,38)	(15,19)	(8,25)	(1,164)	(16,76)	(13,1)	(0,54)	(17,10)	(24,11)	(-5,17)	(7,7)	(10,9)	(-6,18)	(23,14)	(14,19)	
L2C -15>	(1,203)	(-14,1)	(8,12)	(-1,57)	(0,16)	(-7,14)	(7,19)	(9,8)	(29,16)	(2,39)	(-6,14)	(23,7)	(-22,17)	(15,25)	(-21,8)	(14,8)	
L2C -14>	(22,26)	(6,71)	(5,1)	(-22,26)	(14,70)	(-1,49)	(36,29)	(28,64)	(0,20)	(-7,27)	(1,68)	(-15,151)	(12,11)	(8,82)	(13,6)	(34,4)	
L2C -13>	(-1,188)	(6,4)	(1,68)	(27,17)	(14,32)	(12,41)	(13,76)	(-7,10)	(15,62)	(-5,7)	(2,32)	(-2,17)	(28,14)	(-15,6)	(7,32)	(-4,9)	
L2C -12>	(3,10)	(20,1)	(-10,68)	(40,3)	(-8,9)	(-4,87)	(6,31)	(-1,94)	(-9,78)	(19,5)	(1,42)	(-2,11)	(43,3)	(34,9)	(-3,6)	(-5,109)	
L2C -11>	(6,3)	(1,14)	(4,11)	(3,30)	(-2,5)	(2,128)	(-5,12)	(50,2)	(-10,25)	(-1,11)	(9,9)	(8,7)	(5,11)	(43,3)	(-9,2)	(0,7)	
L2C -10>	(31,19)	(0,33)	(1,169)	(21,3)	(22,26)	(2,9)	(-21,29)	(-11,4)	(-1,15)	(9,1)	(43,38)	(-7,1)	(18,2)	(-8,2)	(23,3)	(24,6)	
L2C -9>	(2,25)	(16,45)	(1,144)	(22,13)	(8,130)	(-8,1)	(7,80)	(-1,80)	(-22,39)	(15,28)	(3,14)	(43,58)	(-6,13)	(0,15)	(14,29)	(-21,7)	
L2C -8>	(43,1)	(-1,56)	(15,34)	(20,4)	(7,149)	(-6,19)	(22,16)	(10,12)	(21,16)	(-20,14)	(16,13)	(8,74)	(-7,20)	(0,24)	(9,14)	(1,72)	
L2C -7>	(6,49)	(1,150)	(8,68)	(-7,26)	(9,6)	(-1,174)	(0,22)	(-15,24)	(14,20)	(-21,10)	(-8,45)	(7,95)	(21,31)	(-24,1)	(15,61)	(-6,20)	
L2C -6>	(1,201)	(-14,3)	(-9,6)	(-1,15)	(-28,3)	(-10,3)	(8,14)	(0,7)	(-7,26)	(7,21)	(14,11)	(6,37)	(21,8)	(25,2)	(9,3)	(12,9)	
L2C -5>	(1,131)	(-22,46)	(3,12)	(-1,65)	(-5,95)	(2,20)	(-7,4)	(21,36)	(43,23)	(-4,19)	(38,8)	(-2,73)	(5,37)	(6,1)	(0,80)	(4,45)	
L2C -4>	(2,56)	(4,32)	(-1,130)	(-5,195)	(-8,13)	(1,220)	(5,121)	(38,27)	(3,41)	(16,39)	(0,21)	(-2,67)	(24,17)	(6,1)	(-3,33)	(10,23)	
L2C -3>	(1,254)	(23,32)	(-21,192)	(22,94)	(44,27)	(-1,121)	(-42,24)	(4,47)	(0,1)	(13,10)	(43,26)	(-3,6)	(2,147)	(-20,20)	(5,105)	(-6,7)	
L2C -2>	(-1,11)	(-21,15)	(1,184)	(-22,6)	(0,103)	(43,0)	(22,20)	(-43,0)	(-42,3)	(21,8)	(23,1)	(24,2)	(-20,1)	(2,1)	(3,0)	(14,0)	
L2C -1>	(21,11)	(-1,46)	(23,9)	(-21,97)	(2,10)	(3,5)	(-20,42)	(22,50)	(-22,28)	(-42,11)	(1,139)	(44,1)	(0,64)	(-19,11)	(45,2)	(-41,9)	
L2C 0>	(-22,8)	(-1,4)	(1,131)	(-2,1)	(22,37)	(0,207)	(-21,6)	(-13,1)	(2,3)	(21,25)	(6,0)	(15,0)	(20,0)	(-6,0)	(5,0)	(14,0)	
L2C 1>	(1,196)	(22,23)	(-23,5)	(21,12)	(-44,6)	(-57,16)	(20,14)	(12,19)	(-22,16)	(5,19)	(42,3)	(11,21)	(-1,36)	(0,6)	(2,1)	(-2,48)	
L2C 2>	(-22,13)	(20,3)	(42,2)	(1,183)	(-9,1)	(-45,2)	(3,5)	(0,4)	(-2,15)	(22,4)	(-23,1)	(4,4)	(-1,8)	(2,18)	(-44,1)	(-24,1)	
L2C 3>	(1,254)	(-23,8)	(21,84)	(-44,9)	(-45,1)	(-21,10)	(2,75)	(4,71)	(19,9)	(42,51)	(-1,79)	(-22,28)	(22,6)	(3,41)	(-2,4)	(0,13)	
L2C 4>	(1,162)	(51,1)	(2,65)	(-2,5)	(-23,2)	(43,1)	(0,2)	(-1,23)	(4,119)	(-5,1)	(6,1)	(3,53)	(-4,1)	(5,6)	(-3,9)	(-8,2)	
L2C 5>	(1,2)	(-2,1)	(-3,1)	(-18,27)	(7,0)	(17,162)	(-5,0)	(-6,1)	(-4,1)	(-39,27)	(3,0)	(8,0)	(2,0)	(-1,0)	(-24,0)	(-7,0)	
L2C 6>	(-34,9)	(-13,10)	(1,101)	(-20,32)	(-22,7)	(-14,44)	(7,189)	(0,32)	(8,25)	(-5,14)	(2,29)	(-1,35)	(9,1)	(-6,254)	(-7,48)	(-19,14)	
L2C 7>	(2,41)	(1,109)	(-29,17)	(-13,21)	(-6,165)	(-4,1)	(15,10)	(-7,73)	(-14,192)	(-16,17)	(0,51)	(-22,6)	(-8,9)	(8,42)	(7,53)	(21,19)	
L2C 8>	(-7,20)	(6,104)	(2,18)	(1,36)	(7,34)	(-2,24)	(-30,3)	(-1,138)	(21,15)	(-13,11)	(15,1)	(-8,34)	(0,22)	(-29,2)	(-6,50)	(-16,5)	
L2C 9>	(-31,6)	(-23,1)	(-2,70)	(-6,6)	(-8,26)	(-1,76)	(1,20)	(-21,5)	(-5,78)	(-29,3)	(-4,28)	(-3,4)	(-10,27)	(6,9)	(5,22)	(12,19)	
L2C 10>	(1,9)	(-1,48)	(-10,3)	(-2,76)	(6,8)	(-9,17)	(12,8)	(36,1)	(-3,11)	(-5,36)	(34,23)	(5,13)	(2,4)	(-15,40)	(-4,77)	(33,11)	
L2C 11>	(-14,0)	(1,133)	(10,0)	(29,0)	(-4,0)	(-1,0)	(1,0)	(1,0)	(1,0)	(1,0)	(1,0)	(1,0)	(1,0)	(1,0)	(1,0)	(1,0)	
L2C 12>	(-28,1)	(2,219)	(14,0)	(-20,0)	(13,1)	(-8,0)	(-19,0)	(-13,0)	(-6,0)	(1,0)	(1,0)	(1,0)	(1,0)	(1,0)	(1,0)	(1,0)	
L2C 13>	(1,48)	(9,1)	(-20,6)	(-28,9)	(7,20)	(-12,11)	(-35,21)	(-6,92)	(-13,73)	(15,37)	(-15,64)	(-7,26)	(-14,70)	(0,15)	(21,8)	(-22,24)	
L2C 14>	(1,114)	(-14,83)	(8,22)	(7,144)	(-15,97)	(-13,33)	(6,62)	(-1,38)	(-8,50)	(-6,196)	(-22,18)	(0,13)	(-28,22)	(21,35)	(-2,44)	(-25,1)	
L2C 15>	(-14,77)	(22,1)	(-1,174)	(-2,68)	(-15,73)	(-22,71)	(7,33)	(0,43)	(-37,32)	(-23,13)	(6,34)	(-8,73)	(-21,39)	(29,12)	(-13,20)	(-36,98)	
L2C 16>	(1,22)	(-1,22)	(0,18)	(-22,45)	(6,7)	(-7,5)	(-8,63)	(-15,72)	(-16,96)	(7,1)	(-21,60)	(-36,8)	(-23,11)	(-20,7)	(-14,4)	(-17,6)	
L2C 17>	(1,132)	(-7,0)	(-26,0)	(-21,0)	(-23,0)	(-1,0)	(1,0)	(1,0)	(1,0)	(1,0)	(1,0)	(1,0)	(1,0)	(1,0)	(1,0)	(1,0)	
L2C 18>	(3,5)	(-20,9)	(-13,1)	(-22,3)	(2,14)	(-1,15)	(-11,1)	(1,7)	(22,1)	(21,1)	(-21,11)	(-17,3)	(-42,4)	(-2,1)	(25,1)	(24,13)	
L2C 19>	(22,59)	(-43,19)	(-24,1)	(1,55)	(-21,242)	(0,32)	(-22,25)	(23,27)	(3,6)	(24,10)	(-42,20)	(-20,6)	(-41,4)	(2,22)	(-19,11)	(21,15)	
L2C 20>	(-43,8)	(0,9)	(-28,2)	(-22,63)	(23,2)	(-21,173)	(22,8)	(1,35)	(-41,5)	(2,7)	(-19,7)	(21,4)	(-7,1)	(-42,20)	(-1,28)	(-20,1)	
L2C 21>	(1,86)	(-22,175)	(22,92)	(-42,41)	(-43,74)	(-21,124)	(21,24)	(-20,53)	(0,20)	(-1,48)	(-44,6)	(-23,4)	(20,1)	(-15,1)	(-7,4)	(-28,2)	
L2C 22>	(-43,56)	(-44,39)	(-1,89)	(-20,1)	(1,43)	(-21,155)	(0,20)	(-3,2)	(-22,61)	(21,100)	(20,17)	(-42,2)	(22,26)	(-2,6)	(-23,23)	(2,1)	
L2C 23>	(-22,168)	(-45,8)	(1,185)	(-1,78)	(-43,18)	(-23,8)	(20,91)	(-24,26)	(19,1)	(-2,24)	(-20,9)	(-21,140)	(-44,39)	(21,90)	(-42,10)	(22,130)	
L2C 24>	(-21,177)	(-23,64)	(-45,16)	(-2,60)	(-43,44)	(-22,176)	(1,26)	(-44,12)	(-20,1)	(-46,32)	(-1,42)	(21,189)	(22,87)	(19,57)	(20,20)	(-3,7)	
L2C 25>	(-44,9)	(-25,10)	(-19,5)	(-1,8)	(-21,52)	(0,39)	(-5,6)	(-22,34)	(-2,11)	(-20,2)	(-23,6)	(-17,6)	(-26,2)	(20,16)	(1,15)	(21,4)	
L2C 26>	(1,5)	(-4,8)	(-23,6)	(-5,8)	(-12,6)	(-13,11)	(-48,2)	(-27,7)	(-2,2)	(19,3)	(16,2)	(-1,4)	(-26,4)	(-15,4)	(15,3)	(-22,1)	
L2C 27>	(1,10)	(-14,94)	(-27,10)	(0,7)	(15,20)	(22,7)	(-28,1)	(-7,8)	(21,3)	(7,10)	(-5,2)	(-6,6)	(-1,6)	(-17,3)	(-13,6)	(-26,10)	
L2C 28>	(-43,46)	(-7,52)	(1,21)	(-14,27)	(-35,20)	(15,11)	(-29,33)	(21,9)	(-5,1)	(-1,11)	(-13,14)	(-6,21)	(8,7)	(-50,79)	(-49,21)	(-12,3)	
L2C 29>	(-21,18)	(1,10)	(-36,15)	(-14,32)	(-27,6)	(21,27)	(-50,64)	(13,21)	(6,13)	(-28,62)	(28,16)	(-8,19)	(-7,3)	(-30,9)	(7,37)	(-1,33)	
L2C 30>	(-1,34)	(-9,23)	(21,6)	(-8,9)	(-28,17)	(-22,15)	(-29,1)	(-53,3)	(-37,4)	(-10,12)	(-50,7)	(-14,2)	(12,2)	(-4,26)	(-5,30)	(6,10)	
L2C 31>	(-4,4)	(-9,2)	(0,2)	(-29,14)	(-10,2)	(-1,7)	(-30,12)	(-32,2)	(1,3)	(17,1)	(-22,2)	(-53,2)	(-37,1)	(-5,6)	(12,8)	(5,8)	
L2C 32>	(-22,3)	(-9,1)	(1,1)	(-49,1)	(-17,1)	(-5,1)	(-38,2)	(-46,1)	(-21,1)	(-8,1)	(-53,1)	(-27,1)	(-54,1)	(-35,1)	(-48,1)	(8,1)	
L2C 33>	(-34,3)	(1,5)	(-35,4)	(-14,9)	(21,1)	(2,1)	(-32,1)	(-21,19)	(-1,1)	(-42,2)	(-55,2)	(8,2)	(-30,1)	(-25,1)	(1,0)	(1,0)	
L2C 34>	(-21,21)	(-22,14)	(-57,6)	(-35,8)	(-26,4)	(1,13)	(-6,2)	(-49,7)	(-7,6)	(-55,1)	(-28,11)	(-58,2)	(-42,3)	(-36,8)	(-5,3)	(-1,9)	
L2C 35>	(-28,21)	(-5,4)	(-57,13)	(-55,6)	(-14,9)	(-36,73)	(-22,7)	(1,15)	(-51,8)	(7,1)	(-1,9)	(-7,9)	(-44,2)	(-34,29)	(-21,7)	(-35,4)	
L2C 36>	(1,7)	(-35,65)	(-22,6)	(-37,19)	(-44,7)	(-34,24)	(-59,5)	(-57,49)	(-29,6)	(-14,10)	(-56,11)	(-51,41)	(-1,1)	(-58,15)	(-43,23)	(-7,24)	
L2C 37>	(-59,12)	(-1,16)	(-21,9)	(-30,3)	(-36,32)	(-58,4)	(-8,7)	(-14,7)	(-57,9)	(6,6)	(-22,14)	(-43,4)	(-51,41)	(-35,2)	(-45,3)	(-28,1)	
L2C 38>	(-37,1)	(6,1)	(-8,1)	(-5,3)	(-21,26)	(1,4)	(-7,2)	(-1,6)	(0,7)	(-39,3)	(-22,24)	(-4,1)	(-45,2)	(-16,1)	(-32,1)	(-23,1)	
L2C 39>	(-1,5)	(-2,1)	(3,1)	(-7,1)	(-21,1)	(-22,7)	(1,4)	(-15,1)	(-19,1)	(4,1)	(2,2)	(1,0)	(1,0)	(1,0)	(1,0)	(1,0)	
L2C 40>	(-42,82)	(-45,1)	(0,12)	(-21,241)	(-1,27)	(-18,5)	(3,7)	(-52,2)	(-34,3)	(-20,13)	(-43,78)	(-44,3)	(2,14)	(1,70)	(-41,2)	(-19,3)	
L2C 41>	(-44,19)	(0,8)	(-22,99)	(-43,88)	(-21,147)	(1,19)	(3,3)	(-1,38)	(-40,5)	(-62,0)	(-19,7)	(-20,14)	(-42,14)	(-34,0)	(2,24)	(-18,0)	
L2C 42>	(1,129)	(-43,29)	(-19,2)	(-44,3)	(-21,163)	(-22,84)	(-28,2)	(-41,22)	(-1,89)	(15,0)	(2,8)	(-13,0)	(-20,34)	(-23,2)	(-42,15)	(0,19)	
L2C 43>	(-22,109)	(-1,83)	(-52,0)	(0,0)	(-21,198)	(1,38)	(-23,1)	(-42,35)	(-7,0)	(-24,1)	(-43,9)	(-28,0)	(-20,17)	(-45,0)	(-19,0)	(-44,5)	
L2C 44>	(-2,9)	(1,39)	(-7,1)	(-22,222)	(0,9)	(-1,236)	(-43,83)	(-42,9)	(-28,1)	(2,3)	(-45,8)	(-21,107)	(-46,1)	(-23,9)	(-44,1)	(-20,2)	
L2C 45>	(1,58)	(-43,100)	(-46,14)	(-2,60)	(-22,192)	(-44,37)	(0,10)	(-1,80)	(-52,2)	(-21,137)	(-3,17)	(-23,20)	(-28,2)	(-42,51)	(-45,16)	(-20,1)	
L2C 46>	(1,7)	(-1,31)	(-44,11)	(-2,105)	(-3,35)	(-45,14)	(-21,14)	(-43,88)	(-23,9)	(-22,179)	(-47,7)	(-39,2)	(-48,3)	(-46,5)	(-34,1)	(-26,1)	
L2C 47>	(-44,2)	(-1,1)	(-51,1)	(-26,4)	(7,1)	(-42,1)	(-50,1)	(-21,1)	(-19,1)	(-23,2)	(-35,3)	(-3,1)	(1,1)	(1,0)	(1,0)	(1,0)	
L2C 48>	(-45,2)	(-28,3)	(-42,1)	(-50,4)	(-21,2)	(-5,42)	(-36,1)	(-49,6)	(-39,1)	(-33,3)	(-7,3)	(3,1)	(-4,3)	(-2,1)	(-43,1)	(-41,1)	
L2C 49>	(-50,5)	(1,2)	(-35,3)	(-7,100)	(-48,2)	(8,2)	(-6,1)	(-8,2)	(-36,7)	(-28,6)	(-14,2)	(-42,3)	(-37,2)	(-49,1)	(-13,2)	(-15,1)	
L2C 50>	(-8,14)	(-49,26)	(-37,4)	(-28,14)	(-21,7)	(1,4)	(-6,5)	(-29,26)	(8,3)	(-35,12)	(-51,6)	(-42,1)	(-7,65)	(-36,24)	(-1,5)	(-23,5)	
L2C 51>	(-51,35)	(-54,10)	(-8,11)	(0,5)	(-52,18)	(-35,4)	(-53,2)	(-1,24)	(-44,4)	(-36,4)	(-7,11)	(-37,2)	(1,3)	(-30,5)	(-33,1)	(-14,1)	
L2C 52>	(-35,1)	(1,1)	(-30,2)	(-1,8)	(-4,32)	(-9,13)	(-5,12)	(-10,5)	(-29,1)	(-34,2)	(-8,4)	(-7,2)	(-51,4)	(-53,1)	(-18,1)	(-16,1)	
L2C 53>	(1,3)	(-53,9)	(-52,8)	(-5,17)	(-10,8)	(-9,6)	(-7,1)	(-27,1)	(-11,1)	(6,2)	(-1,4)	(-29,1)	(-43,1)	(-51,2)	(1,0)	(1,0)	
L2C 54>	(-37,1)	(-53,1)	(-29,2)	(-1,5)	(1,1)	(-2,1)	(-52,1)	(1,0)	(1,0)	(1,0)	(1,0)	(1,0)	(1,0)	(1,0)	(1,0)	(1,0)	
L2C 55>	(-21,1)	(-54,3)	(-35,2)	(1,1)	(-34,1)	(-32,1)	(-51,1)	(-1,2)	(-36,1)	(-53,1)	(1,0)	(1,0)	(1,0)	(1,0)	(1,0)	(1,0)	
L2C 56>	(-42,1)	(-49,2)	(-35,2)	(-56,1)	(-7,1)	(-2,1)	(-25,1)	(1,0)	(1,0)	(1,0)	(1,0)	(1,0)	(1,0)	(1,0)	(1,0)	(1,0)	
L2C 57>	(-35,3)	(-36,5)	(-56,2)	(-58,1)	(-49,1)	(-1,2)	(-34,1)	(-6,1)	(1,0)	(1,0)	(1,0)	(1,0)	(1,0)	(1,0)	(1,0)	(1,0)	
L2C 58>	(-14,2)	(-42,1)	(-25,1)	(-44,1)	(-37,1)	(-51,2)	(-36,2)	(-17,1)	(-38,1)	(1,0)	(1,0)	(1,0)	(1,0)	(1,0)	(1,0)	(1,0)	
L2C 59>	(-37,2)	(-15,1)	(1,0)	(1,0)	(1,0)	(1,0)	(1,0)	(1,0)	(1,0)	(1,0)	(1,0)	(1,0)	(1,0)	(1,0)	(1,0)	(1,0)	
L2C 60>	(-57,1)	(1,0)	(1,0)	(1,0)	(1,0)	(1,0)	(1,0)	(1,0)	(1,0)	(1,0)	(1,0)	(1,0)	(1,0)	(1,0)	(1,0)	(1,0)	
L2C 61>	(-60,1)	(1,1)	(1,0)	(1,0)	(1,0)	(1,0)	(1,0)	(1,0)	(1,0)	(1,0)	(1,0)	(1,0)	(1,0)	(1,0)	(1,0)	(1,0)	
L2C 62>	(1,0)	(1,0)	(1,0)	(1,0)	(1,0)	(1,0)	(1,0)	(1,0)	(1,0)	(1,0)	(1,0)	(1,0)	(1,0)	(1,0)	(1,0)	(1,0)	
L2C 63>	(-44,3)	(-22,45)	(-21,46)	(-43,6)	(-16,1)	(-1,2)	(1,0)	(1,0)	(1,0)	(1,0)	(1,0)	(1,0)	(1,0)	(1,0)	(1,0)	(1,0)	

DRAM Statistics
 CHANNEL 0
 RQ ROW_BUFFER_HIT:     187317  ROW_BUFFER_MISS:     206440
 DBUS_CONGESTED:     313456
 WQ ROW_BUFFER_HIT:      22863  ROW_BUFFER_MISS:     115688  FULL:          0

 AVG_CONGESTED_CYCLE: 6
