
*** ChampSim Multicore Out-of-Order Simulator ***

Warmup Instructions: 1000000
Simulation Instructions: 10000000
Number of CPUs: 4
LLC sets: 8192
LLC ways: 16
Off-chip DRAM Size: 4096 MB Channels: 1 Width: 64-bit Data Rate: 3200 MT/s

CPU 0 runs /home/virtualcse/Data-Prefetching/ChampSim/dpc3_traces/602.gcc_s-1850B.champsimtrace.xz
CPU 1 runs /home/virtualcse/Data-Prefetching/ChampSim/dpc3_traces/603.bwaves_s-1080B.champsimtrace.xz
CPU 2 runs /home/virtualcse/Data-Prefetching/ChampSim/dpc3_traces/631.deepsjeng_s-928B.champsimtrace.xz
CPU 3 runs /home/virtualcse/Data-Prefetching/ChampSim/dpc3_traces/600.perlbench_s-1273B.champsimtrace.xz
Ultra pref. initializing...
Ultra pref. initialized
Ultra pref. initializing...
Ultra pref. initialized
Ultra pref. initializing...
Ultra pref. initialized
Ultra pref. initializing...
Ultra pref. initialized
Ultra pref. initializing...
Ultra pref. initialized
Ultra pref. initializing...
Ultra pref. initialized
Ultra pref. initializing...
Ultra pref. initialized
Ultra pref. initializing...
Ultra pref. initialized

Warmup complete CPU 0 instructions: 1000004 cycles: 420031 (Simulation time: 0 hr 0 min 9 sec) 
Warmup complete CPU 1 instructions: 1228200 cycles: 420030 (Simulation time: 0 hr 0 min 9 sec) 
Warmup complete CPU 2 instructions: 1095346 cycles: 420030 (Simulation time: 0 hr 0 min 9 sec) 
Warmup complete CPU 3 instructions: 1087869 cycles: 420030 (Simulation time: 0 hr 0 min 9 sec) 

Heartbeat CPU 1 instructions: 10000001 cycles: 4583425 heartbeat IPC: 2.18177 cumulative IPC: 2.10689 (Simulation time: 0 hr 0 min 45 sec) 
Finished CPU 1 instructions: 10000001 cycles: 4746365 cumulative IPC: 2.10688 (Simulation time: 0 hr 0 min 50 sec) 
Heartbeat CPU 3 instructions: 10000000 cycles: 5725555 heartbeat IPC: 1.74656 cumulative IPC: 1.67978 (Simulation time: 0 hr 0 min 55 sec) 
Finished CPU 3 instructions: 10000003 cycles: 5925237 cumulative IPC: 1.6877 (Simulation time: 0 hr 1 min 1 sec) 
Heartbeat CPU 2 instructions: 10000003 cycles: 8172395 heartbeat IPC: 1.22363 cumulative IPC: 1.14864 (Simulation time: 0 hr 1 min 17 sec) 
Finished CPU 2 instructions: 10000002 cycles: 8735406 cumulative IPC: 1.14477 (Simulation time: 0 hr 1 min 24 sec) 
Heartbeat CPU 1 instructions: 20000003 cycles: 9306485 heartbeat IPC: 2.11727 cumulative IPC: 2.11241 (Simulation time: 0 hr 1 min 26 sec) 
Heartbeat CPU 3 instructions: 20000000 cycles: 12024035 heartbeat IPC: 1.58768 cumulative IPC: 1.62979 (Simulation time: 0 hr 1 min 47 sec) 
Heartbeat CPU 0 instructions: 10000000 cycles: 12798783 heartbeat IPC: 0.781324 cumulative IPC: 0.727052 (Simulation time: 0 hr 1 min 54 sec) 
Heartbeat CPU 1 instructions: 30000001 cycles: 13917710 heartbeat IPC: 2.16862 cumulative IPC: 2.13161 (Simulation time: 0 hr 2 min 3 sec) 
Finished CPU 0 instructions: 10000001 cycles: 13775875 cumulative IPC: 0.725907 (Simulation time: 0 hr 2 min 6 sec) 

CPU 0 Branch Prediction Accuracy: 96.3029% MPKI: 8.6793 Average ROB Occupancy at Mispredict: 49.9837

CPU 1 Branch Prediction Accuracy: 93.299% MPKI: 8.17 Average ROB Occupancy at Mispredict: 83.7726

CPU 2 Branch Prediction Accuracy: 91.6562% MPKI: 9.26436 Average ROB Occupancy at Mispredict: 45.9315

CPU 3 Branch Prediction Accuracy: 98.3407% MPKI: 2.06329 Average ROB Occupancy at Mispredict: 104.609

ChampSim completed all CPUs

Total Simulation Statistics (not including warmup)

CPU 0 cumulative IPC: 0.725907 instructions: 10000001 cycles: 13775875
L1D TOTAL     ACCESS:    4330324  HIT:    4079122  MISS:     251202
L1D LOAD      ACCESS:    1933110  HIT:    1750924  MISS:     182186
L1D RFO       ACCESS:     863000  HIT:     862998  MISS:          2
L1D PREFETCH  ACCESS:    1534214  HIT:    1465200  MISS:      69014
L1D WRITEBACK ACCESS:          0  HIT:          0  MISS:          0
L1I TOTAL     ACCESS:     969023  HIT:     969023  MISS:          0
L1I LOAD      ACCESS:     969023  HIT:     969023  MISS:          0
L1I RFO       ACCESS:          0  HIT:          0  MISS:          0
L1I PREFETCH  ACCESS:          0  HIT:          0  MISS:          0
L1I WRITEBACK ACCESS:          0  HIT:          0  MISS:          0
L2C TOTAL     ACCESS:     841791  HIT:     660086  MISS:     181705
L2C LOAD      ACCESS:     153855  HIT:     137811  MISS:      16044
L2C RFO       ACCESS:          0  HIT:          0  MISS:          0
L2C PREFETCH  ACCESS:     687617  HIT:     521956  MISS:     165661
L2C WRITEBACK ACCESS:        319  HIT:        319  MISS:          0

L1D -512>	(1,6)	(3,52)	(-6,2)	(4,32)	(2,3)	(5,53)	(-2,14)	(-1,0)	(0,83)	(27,0)	(6,11)	(10,23)	(15,0)	(9,0)	(201,0)	(7,1)	
L1D -511>	(0,1)	(3,18)	(10,1)	(1,0)	(1,0)	(1,0)	(1,0)	(1,0)	(1,0)	(1,0)	(1,0)	(1,0)	(1,0)	(1,0)	(1,0)	(1,0)	
L1D -510>	(5,1)	(1,0)	(1,0)	(1,0)	(1,0)	(1,0)	(1,0)	(1,0)	(1,0)	(1,0)	(1,0)	(1,0)	(1,0)	(1,0)	(1,0)	(1,0)	
L1D -509>	(5,1)	(1,0)	(1,0)	(1,0)	(1,0)	(1,0)	(1,0)	(1,0)	(1,0)	(1,0)	(1,0)	(1,0)	(1,0)	(1,0)	(1,0)	(1,0)	
L1D -508>	(5,38)	(0,33)	(-2,8)	(2,5)	(10,1)	(1,0)	(1,0)	(1,0)	(1,0)	(1,0)	(1,0)	(1,0)	(1,0)	(1,0)	(1,0)	(1,0)	
L1D -507>	(1,3)	(5,1)	(-2,1)	(1,0)	(1,0)	(1,0)	(1,0)	(1,0)	(1,0)	(1,0)	(1,0)	(1,0)	(1,0)	(1,0)	(1,0)	(1,0)	
L1D -506>	(3,13)	(0,5)	(1,0)	(1,0)	(1,0)	(1,0)	(1,0)	(1,0)	(1,0)	(1,0)	(1,0)	(1,0)	(1,0)	(1,0)	(1,0)	(1,0)	
L1D -505>	(2,1)	(5,1)	(1,0)	(1,0)	(1,0)	(1,0)	(1,0)	(1,0)	(1,0)	(1,0)	(1,0)	(1,0)	(1,0)	(1,0)	(1,0)	(1,0)	
L1D -504>	(5,1)	(1,0)	(1,0)	(1,0)	(1,0)	(1,0)	(1,0)	(1,0)	(1,0)	(1,0)	(1,0)	(1,0)	(1,0)	(1,0)	(1,0)	(1,0)	
L1D -503>	(0,2)	(5,5)	(-2,2)	(1,0)	(1,0)	(1,0)	(1,0)	(1,0)	(1,0)	(1,0)	(1,0)	(1,0)	(1,0)	(1,0)	(1,0)	(1,0)	
L1D -502>	(96,1)	(1,0)	(1,0)	(1,0)	(1,0)	(1,0)	(1,0)	(1,0)	(1,0)	(1,0)	(1,0)	(1,0)	(1,0)	(1,0)	(1,0)	(1,0)	
L1D -501>	(10,1)	(1,0)	(1,0)	(1,0)	(1,0)	(1,0)	(1,0)	(1,0)	(1,0)	(1,0)	(1,0)	(1,0)	(1,0)	(1,0)	(1,0)	(1,0)	
L1D -500>	(1,0)	(1,0)	(1,0)	(1,0)	(1,0)	(1,0)	(1,0)	(1,0)	(1,0)	(1,0)	(1,0)	(1,0)	(1,0)	(1,0)	(1,0)	(1,0)	
L1D -499>	(1,0)	(1,0)	(1,0)	(1,0)	(1,0)	(1,0)	(1,0)	(1,0)	(1,0)	(1,0)	(1,0)	(1,0)	(1,0)	(1,0)	(1,0)	(1,0)	
L1D -498>	(2,1)	(1,0)	(1,0)	(1,0)	(1,0)	(1,0)	(1,0)	(1,0)	(1,0)	(1,0)	(1,0)	(1,0)	(1,0)	(1,0)	(1,0)	(1,0)	
L1D -497>	(1,0)	(1,0)	(1,0)	(1,0)	(1,0)	(1,0)	(1,0)	(1,0)	(1,0)	(1,0)	(1,0)	(1,0)	(1,0)	(1,0)	(1,0)	(1,0)	
L1D -496>	(3,1)	(1,0)	(1,0)	(1,0)	(1,0)	(1,0)	(1,0)	(1,0)	(1,0)	(1,0)	(1,0)	(1,0)	(1,0)	(1,0)	(1,0)	(1,0)	
L1D -495>	(2,1)	(1,0)	(1,0)	(1,0)	(1,0)	(1,0)	(1,0)	(1,0)	(1,0)	(1,0)	(1,0)	(1,0)	(1,0)	(1,0)	(1,0)	(1,0)	
L1D -494>	(1,0)	(1,0)	(1,0)	(1,0)	(1,0)	(1,0)	(1,0)	(1,0)	(1,0)	(1,0)	(1,0)	(1,0)	(1,0)	(1,0)	(1,0)	(1,0)	
L1D -493>	(1,0)	(1,0)	(1,0)	(1,0)	(1,0)	(1,0)	(1,0)	(1,0)	(1,0)	(1,0)	(1,0)	(1,0)	(1,0)	(1,0)	(1,0)	(1,0)	
L1D -492>	(1,0)	(1,0)	(1,0)	(1,0)	(1,0)	(1,0)	(1,0)	(1,0)	(1,0)	(1,0)	(1,0)	(1,0)	(1,0)	(1,0)	(1,0)	(1,0)	
L1D -491>	(1,0)	(1,0)	(1,0)	(1,0)	(1,0)	(1,0)	(1,0)	(1,0)	(1,0)	(1,0)	(1,0)	(1,0)	(1,0)	(1,0)	(1,0)	(1,0)	
L1D -490>	(0,1)	(1,0)	(1,0)	(1,0)	(1,0)	(1,0)	(1,0)	(1,0)	(1,0)	(1,0)	(1,0)	(1,0)	(1,0)	(1,0)	(1,0)	(1,0)	
L1D -489>	(1,0)	(1,0)	(1,0)	(1,0)	(1,0)	(1,0)	(1,0)	(1,0)	(1,0)	(1,0)	(1,0)	(1,0)	(1,0)	(1,0)	(1,0)	(1,0)	
L1D -488>	(5,2)	(1,0)	(1,0)	(1,0)	(1,0)	(1,0)	(1,0)	(1,0)	(1,0)	(1,0)	(1,0)	(1,0)	(1,0)	(1,0)	(1,0)	(1,0)	
L1D -487>	(1,0)	(1,0)	(1,0)	(1,0)	(1,0)	(1,0)	(1,0)	(1,0)	(1,0)	(1,0)	(1,0)	(1,0)	(1,0)	(1,0)	(1,0)	(1,0)	
L1D -486>	(80,1)	(1,0)	(1,0)	(1,0)	(1,0)	(1,0)	(1,0)	(1,0)	(1,0)	(1,0)	(1,0)	(1,0)	(1,0)	(1,0)	(1,0)	(1,0)	
L1D -485>	(119,1)	(1,0)	(1,0)	(1,0)	(1,0)	(1,0)	(1,0)	(1,0)	(1,0)	(1,0)	(1,0)	(1,0)	(1,0)	(1,0)	(1,0)	(1,0)	
L1D -484>	(1,0)	(1,0)	(1,0)	(1,0)	(1,0)	(1,0)	(1,0)	(1,0)	(1,0)	(1,0)	(1,0)	(1,0)	(1,0)	(1,0)	(1,0)	(1,0)	
L1D -483>	(1,0)	(1,0)	(1,0)	(1,0)	(1,0)	(1,0)	(1,0)	(1,0)	(1,0)	(1,0)	(1,0)	(1,0)	(1,0)	(1,0)	(1,0)	(1,0)	
L1D -482>	(1,0)	(1,0)	(1,0)	(1,0)	(1,0)	(1,0)	(1,0)	(1,0)	(1,0)	(1,0)	(1,0)	(1,0)	(1,0)	(1,0)	(1,0)	(1,0)	
L1D -481>	(123,1)	(1,0)	(1,0)	(1,0)	(1,0)	(1,0)	(1,0)	(1,0)	(1,0)	(1,0)	(1,0)	(1,0)	(1,0)	(1,0)	(1,0)	(1,0)	
L1D -480>	(0,1)	(456,15)	(464,4)	(480,3)	(448,6)	(1,0)	(1,0)	(1,0)	(1,0)	(1,0)	(1,0)	(1,0)	(1,0)	(1,0)	(1,0)	(1,0)	
L1D -479>	(270,2)	(5,1)	(477,1)	(1,0)	(1,0)	(1,0)	(1,0)	(1,0)	(1,0)	(1,0)	(1,0)	(1,0)	(1,0)	(1,0)	(1,0)	(1,0)	
L1D -478>	(121,1)	(498,1)	(400,2)	(1,0)	(1,0)	(1,0)	(1,0)	(1,0)	(1,0)	(1,0)	(1,0)	(1,0)	(1,0)	(1,0)	(1,0)	(1,0)	
L1D -477>	(1,0)	(1,0)	(1,0)	(1,0)	(1,0)	(1,0)	(1,0)	(1,0)	(1,0)	(1,0)	(1,0)	(1,0)	(1,0)	(1,0)	(1,0)	(1,0)	
L1D -476>	(1,0)	(1,0)	(1,0)	(1,0)	(1,0)	(1,0)	(1,0)	(1,0)	(1,0)	(1,0)	(1,0)	(1,0)	(1,0)	(1,0)	(1,0)	(1,0)	
L1D -475>	(475,3)	(411,1)	(1,0)	(1,0)	(1,0)	(1,0)	(1,0)	(1,0)	(1,0)	(1,0)	(1,0)	(1,0)	(1,0)	(1,0)	(1,0)	(1,0)	
L1D -474>	(115,3)	(2,1)	(1,0)	(1,0)	(1,0)	(1,0)	(1,0)	(1,0)	(1,0)	(1,0)	(1,0)	(1,0)	(1,0)	(1,0)	(1,0)	(1,0)	
L1D -473>	(2,1)	(1,0)	(1,0)	(1,0)	(1,0)	(1,0)	(1,0)	(1,0)	(1,0)	(1,0)	(1,0)	(1,0)	(1,0)	(1,0)	(1,0)	(1,0)	
L1D -472>	(113,2)	(98,3)	(-8,1)	(63,1)	(1,0)	(1,0)	(1,0)	(1,0)	(1,0)	(1,0)	(1,0)	(1,0)	(1,0)	(1,0)	(1,0)	(1,0)	
L1D -471>	(343,3)	(1,2)	(97,3)	(1,0)	(1,0)	(1,0)	(1,0)	(1,0)	(1,0)	(1,0)	(1,0)	(1,0)	(1,0)	(1,0)	(1,0)	(1,0)	
L1D -470>	(281,1)	(96,9)	(2,1)	(278,1)	(275,1)	(1,0)	(1,0)	(1,0)	(1,0)	(1,0)	(1,0)	(1,0)	(1,0)	(1,0)	(1,0)	(1,0)	
L1D -469>	(27,1)	(26,1)	(278,1)	(1,0)	(1,0)	(1,0)	(1,0)	(1,0)	(1,0)	(1,0)	(1,0)	(1,0)	(1,0)	(1,0)	(1,0)	(1,0)	
L1D -468>	(1,0)	(1,0)	(1,0)	(1,0)	(1,0)	(1,0)	(1,0)	(1,0)	(1,0)	(1,0)	(1,0)	(1,0)	(1,0)	(1,0)	(1,0)	(1,0)	
L1D -467>	(1,5)	(1,0)	(1,0)	(1,0)	(1,0)	(1,0)	(1,0)	(1,0)	(1,0)	(1,0)	(1,0)	(1,0)	(1,0)	(1,0)	(1,0)	(1,0)	
L1D -466>	(330,31)	(254,4)	(1,0)	(1,0)	(1,0)	(1,0)	(1,0)	(1,0)	(1,0)	(1,0)	(1,0)	(1,0)	(1,0)	(1,0)	(1,0)	(1,0)	
L1D -465>	(122,1)	(0,2)	(114,1)	(120,1)	(2,1)	(1,0)	(1,0)	(1,0)	(1,0)	(1,0)	(1,0)	(1,0)	(1,0)	(1,0)	(1,0)	(1,0)	
L1D -464>	(0,5)	(113,4)	(448,4)	(1,0)	(1,0)	(1,0)	(1,0)	(1,0)	(1,0)	(1,0)	(1,0)	(1,0)	(1,0)	(1,0)	(1,0)	(1,0)	
L1D -463>	(1,0)	(1,0)	(1,0)	(1,0)	(1,0)	(1,0)	(1,0)	(1,0)	(1,0)	(1,0)	(1,0)	(1,0)	(1,0)	(1,0)	(1,0)	(1,0)	
L1D -462>	(277,1)	(104,1)	(1,0)	(1,0)	(1,0)	(1,0)	(1,0)	(1,0)	(1,0)	(1,0)	(1,0)	(1,0)	(1,0)	(1,0)	(1,0)	(1,0)	
L1D -461>	(3,1)	(1,0)	(1,0)	(1,0)	(1,0)	(1,0)	(1,0)	(1,0)	(1,0)	(1,0)	(1,0)	(1,0)	(1,0)	(1,0)	(1,0)	(1,0)	
L1D -460>	(78,1)	(-5,1)	(144,1)	(260,1)	(67,2)	(460,1)	(1,0)	(1,0)	(1,0)	(1,0)	(1,0)	(1,0)	(1,0)	(1,0)	(1,0)	(1,0)	
L1D -459>	(249,1)	(459,2)	(66,1)	(4,1)	(1,0)	(1,0)	(1,0)	(1,0)	(1,0)	(1,0)	(1,0)	(1,0)	(1,0)	(1,0)	(1,0)	(1,0)	
L1D -458>	(2,2)	(1,1)	(458,9)	(246,1)	(450,1)	(331,1)	(-3,4)	(1,0)	(1,0)	(1,0)	(1,0)	(1,0)	(1,0)	(1,0)	(1,0)	(1,0)	
L1D -457>	(2,2)	(122,3)	(106,1)	(329,5)	(350,3)	(332,2)	(322,1)	(1,0)	(1,0)	(1,0)	(1,0)	(1,0)	(1,0)	(1,0)	(1,0)	(1,0)	
L1D -456>	(8,3)	(113,1)	(0,2)	(16,1)	(260,2)	(448,30)	(-8,2)	(464,1)	(82,1)	(1,0)	(1,0)	(1,0)	(1,0)	(1,0)	(1,0)	(1,0)	
L1D -455>	(104,5)	(274,1)	(2,1)	(1,0)	(1,0)	(1,0)	(1,0)	(1,0)	(1,0)	(1,0)	(1,0)	(1,0)	(1,0)	(1,0)	(1,0)	(1,0)	
L1D -454>	(251,1)	(247,10)	(295,1)	(80,5)	(25,1)	(327,3)	(1,0)	(1,0)	(1,0)	(1,0)	(1,0)	(1,0)	(1,0)	(1,0)	(1,0)	(1,0)	
L1D -453>	(453,10)	(0,1)	(287,1)	(279,1)	(1,0)	(1,0)	(1,0)	(1,0)	(1,0)	(1,0)	(1,0)	(1,0)	(1,0)	(1,0)	(1,0)	(1,0)	
L1D -452>	(270,1)	(1,0)	(1,0)	(1,0)	(1,0)	(1,0)	(1,0)	(1,0)	(1,0)	(1,0)	(1,0)	(1,0)	(1,0)	(1,0)	(1,0)	(1,0)	
L1D -451>	(2,3)	(122,2)	(263,1)	(323,1)	(1,0)	(1,0)	(1,0)	(1,0)	(1,0)	(1,0)	(1,0)	(1,0)	(1,0)	(1,0)	(1,0)	(1,0)	
L1D -450>	(2,1)	(115,10)	(1,2)	(304,1)	(400,1)	(384,1)	(314,7)	(270,1)	(392,1)	(1,0)	(1,0)	(1,0)	(1,0)	(1,0)	(1,0)	(1,0)	
L1D -449>	(114,4)	(312,2)	(0,8)	(122,1)	(2,30)	(1,4)	(1,0)	(1,0)	(1,0)	(1,0)	(1,0)	(1,0)	(1,0)	(1,0)	(1,0)	(1,0)	
L1D -448>	(113,9)	(122,4)	(0,1)	(121,7)	(384,22)	(416,17)	(112,17)	(432,8)	(448,98)	(480,40)	(464,3)	(119,1)	(424,2)	(456,5)	(-8,2)	(1,0)	
L1D -447>	(319,7)	(447,9)	(-2,3)	(8,2)	(0,20)	(121,2)	(119,1)	(384,4)	(7,1)	(112,1)	(14,2)	(444,1)	(311,2)	(1,0)	(1,0)	(1,0)	
L1D -446>	(446,1)	(319,2)	(318,1)	(0,3)	(459,1)	(449,1)	(1,0)	(1,0)	(1,0)	(1,0)	(1,0)	(1,0)	(1,0)	(1,0)	(1,0)	(1,0)	
L1D -445>	(319,1)	(445,1)	(1,0)	(1,0)	(1,0)	(1,0)	(1,0)	(1,0)	(1,0)	(1,0)	(1,0)	(1,0)	(1,0)	(1,0)	(1,0)	(1,0)	
L1D -444>	(1,1)	(144,2)	(93,1)	(67,3)	(260,6)	(252,1)	(0,2)	(-8,1)	(444,1)	(72,1)	(111,1)	(1,0)	(1,0)	(1,0)	(1,0)	(1,0)	
L1D -443>	(0,1)	(-26,3)	(66,1)	(5,1)	(443,4)	(1,0)	(1,0)	(1,0)	(1,0)	(1,0)	(1,0)	(1,0)	(1,0)	(1,0)	(1,0)	(1,0)	
L1D -442>	(1,2)	(113,2)	(106,2)	(1,0)	(1,0)	(1,0)	(1,0)	(1,0)	(1,0)	(1,0)	(1,0)	(1,0)	(1,0)	(1,0)	(1,0)	(1,0)	
L1D -441>	(115,4)	(114,1)	(106,2)	(-8,1)	(0,1)	(273,3)	(-6,2)	(1,0)	(1,0)	(1,0)	(1,0)	(1,0)	(1,0)	(1,0)	(1,0)	(1,0)	
L1D -440>	(-8,34)	(114,2)	(312,2)	(113,4)	(440,6)	(2,1)	(459,1)	(0,2)	(63,2)	(105,1)	(1,0)	(1,0)	(1,0)	(1,0)	(1,0)	(1,0)	
L1D -439>	(113,8)	(0,37)	(232,5)	(-9,2)	(459,2)	(462,1)	(336,1)	(328,1)	(306,1)	(307,1)	(308,2)	(310,2)	(326,1)	(331,1)	(338,1)	(250,1)	
L1D -438>	(438,31)	(459,12)	(212,2)	(276,2)	(311,5)	(444,1)	(315,1)	(330,1)	(336,1)	(358,1)	(367,1)	(306,1)	(340,1)	(338,1)	(328,1)	(323,1)	
L1D -437>	(1,3)	(438,127)	(212,2)	(0,1)	(311,19)	(458,6)	(434,6)	(295,1)	(437,2)	(274,1)	(-2,1)	(1,0)	(1,0)	(1,0)	(1,0)	(1,0)	
L1D -436>	(0,2)	(1,3)	(438,67)	(434,9)	(295,5)	(212,0)	(1,0)	(1,0)	(1,0)	(1,0)	(1,0)	(1,0)	(1,0)	(1,0)	(1,0)	(1,0)	
L1D -435>	(435,65)	(264,2)	(294,11)	(434,4)	(438,3)	(431,4)	(210,5)	(261,2)	(93,7)	(117,1)	(92,2)	(104,1)	(105,2)	(250,2)	(260,1)	(97,1)	
L1D -434>	(0,20)	(1,3)	(295,17)	(438,75)	(435,43)	(212,9)	(434,22)	(210,1)	(-16,1)	(1,0)	(1,0)	(1,0)	(1,0)	(1,0)	(1,0)	(1,0)	
L1D -433>	(-8,1)	(0,22)	(1,4)	(-3,31)	(435,79)	(294,4)	(210,6)	(431,3)	(432,0)	(3,0)	(1,0)	(1,0)	(1,0)	(1,0)	(1,0)	(1,0)	
L1D -432>	(0,2)	(238,3)	(432,2)	(97,1)	(1,0)	(1,0)	(1,0)	(1,0)	(1,0)	(1,0)	(1,0)	(1,0)	(1,0)	(1,0)	(1,0)	(1,0)	
L1D -431>	(0,9)	(104,2)	(-2,1)	(1,74)	(431,38)	(294,11)	(210,7)	(435,15)	(92,1)	(8,1)	(7,1)	(1,0)	(1,0)	(1,0)	(1,0)	(1,0)	
L1D -430>	(1,110)	(0,10)	(222,1)	(206,2)	(431,1)	(261,4)	(121,2)	(16,1)	(57,1)	(1,0)	(1,0)	(1,0)	(1,0)	(1,0)	(1,0)	(1,0)	
L1D -429>	(1,126)	(0,13)	(450,1)	(4,1)	(221,1)	(8,1)	(79,2)	(93,1)	(1,0)	(1,0)	(1,0)	(1,0)	(1,0)	(1,0)	(1,0)	(1,0)	
L1D -428>	(2,66)	(0,6)	(1,2)	(-2,1)	(8,0)	(471,20)	(1,0)	(1,0)	(1,0)	(1,0)	(1,0)	(1,0)	(1,0)	(1,0)	(1,0)	(1,0)	
L1D -427>	(1,66)	(0,8)	(-17,0)	(203,0)	(2,0)	(427,26)	(290,2)	(-9,0)	(423,0)	(1,0)	(1,0)	(1,0)	(1,0)	(1,0)	(1,0)	(1,0)	
L1D -426>	(0,10)	(427,108)	(423,6)	(-3,3)	(203,1)	(1,3)	(426,3)	(290,3)	(270,1)	(8,1)	(1,0)	(1,0)	(1,0)	(1,0)	(1,0)	(1,0)	
L1D -425>	(1,6)	(0,4)	(427,126)	(423,5)	(203,9)	(290,11)	(2,1)	(8,1)	(1,0)	(1,0)	(1,0)	(1,0)	(1,0)	(1,0)	(1,0)	(1,0)	
L1D -424>	(0,2)	(427,5)	(290,1)	(8,2)	(423,4)	(297,1)	(353,1)	(1,0)	(1,0)	(1,0)	(1,0)	(1,0)	(1,0)	(1,0)	(1,0)	(1,0)	
L1D -423>	(0,22)	(1,121)	(114,0)	(423,38)	(427,18)	(290,16)	(203,2)	(428,0)	(-4,1)	(94,0)	(1,0)	(1,0)	(1,0)	(1,0)	(1,0)	(1,0)	
L1D -422>	(0,2)	(1,102)	(427,1)	(101,1)	(1,0)	(1,0)	(1,0)	(1,0)	(1,0)	(1,0)	(1,0)	(1,0)	(1,0)	(1,0)	(1,0)	(1,0)	
L1D -421>	(1,75)	(0,1)	(79,3)	(335,0)	(16,0)	(1,0)	(1,0)	(1,0)	(1,0)	(1,0)	(1,0)	(1,0)	(1,0)	(1,0)	(1,0)	(1,0)	
L1D -420>	(1,19)	(0,29)	(2,1)	(-3,24)	(420,1)	(79,1)	(3,2)	(1,0)	(1,0)	(1,0)	(1,0)	(1,0)	(1,0)	(1,0)	(1,0)	(1,0)	
L1D -419>	(1,92)	(0,5)	(419,15)	(286,4)	(415,0)	(1,0)	(1,0)	(1,0)	(1,0)	(1,0)	(1,0)	(1,0)	(1,0)	(1,0)	(1,0)	(1,0)	
L1D -418>	(196,1)	(419,102)	(0,2)	(1,3)	(415,1)	(5,0)	(8,0)	(1,0)	(1,0)	(1,0)	(1,0)	(1,0)	(1,0)	(1,0)	(1,0)	(1,0)	
L1D -417>	(118,0)	(-3,0)	(122,1)	(419,71)	(286,8)	(196,5)	(1,3)	(8,0)	(415,4)	(0,1)	(113,1)	(2,0)	(1,0)	(1,0)	(1,0)	(1,0)	
L1D -416>	(0,5)	(400,4)	(286,1)	(260,6)	(209,9)	(416,18)	(-81,1)	(204,3)	(252,4)	(188,1)	(128,2)	(5,3)	(415,9)	(384,3)	(414,1)	(202,2)	
L1D -415>	(0,20)	(1,88)	(419,25)	(286,25)	(415,50)	(122,1)	(106,0)	(268,0)	(115,0)	(2,2)	(196,0)	(287,0)	(-2,1)	(-15,0)	(-8,0)	(77,1)	
L1D -414>	(1,71)	(0,3)	(-64,0)	(-3,0)	(384,1)	(416,0)	(1,0)	(1,0)	(1,0)	(1,0)	(1,0)	(1,0)	(1,0)	(1,0)	(1,0)	(1,0)	
L1D -413>	(1,112)	(0,2)	(120,1)	(219,1)	(79,2)	(1,0)	(1,0)	(1,0)	(1,0)	(1,0)	(1,0)	(1,0)	(1,0)	(1,0)	(1,0)	(1,0)	
L1D -412>	(1,15)	(0,46)	(-3,42)	(270,5)	(222,1)	(3,1)	(322,1)	(1,0)	(1,0)	(1,0)	(1,0)	(1,0)	(1,0)	(1,0)	(1,0)	(1,0)	
L1D -411>	(0,7)	(1,64)	(407,0)	(-3,3)	(411,25)	(189,0)	(282,2)	(229,0)	(8,0)	(1,0)	(1,0)	(1,0)	(1,0)	(1,0)	(1,0)	(1,0)	
L1D -410>	(411,93)	(2,1)	(407,1)	(282,2)	(90,1)	(0,1)	(189,1)	(79,2)	(246,2)	(64,2)	(1,0)	(1,0)	(1,0)	(1,0)	(1,0)	(1,0)	
L1D -409>	(244,1)	(262,0)	(0,2)	(411,100)	(-64,23)	(2,1)	(282,5)	(-6,0)	(197,0)	(1,1)	(407,5)	(189,2)	(344,0)	(-3,2)	(8,0)	(312,0)	
L1D -408>	(407,4)	(206,5)	(252,1)	(3,1)	(-9,1)	(-2,1)	(113,2)	(411,6)	(440,1)	(104,3)	(384,1)	(282,2)	(1,1)	(189,1)	(0,6)	(-3,2)	
L1D -407>	(0,20)	(1,88)	(407,115)	(377,3)	(411,50)	(282,16)	(94,5)	(189,1)	(171,1)	(349,1)	(8,1)	(499,1)	(28,2)	(412,1)	(91,1)	(4,2)	
L1D -406>	(1,84)	(297,0)	(113,3)	(278,0)	(-8,0)	(0,0)	(426,0)	(311,0)	(458,0)	(1,0)	(1,0)	(1,0)	(1,0)	(1,0)	(1,0)	(1,0)	
L1D -405>	(1,85)	(311,0)	(255,0)	(191,0)	(261,0)	(0,0)	(275,0)	(316,0)	(325,0)	(334,0)	(297,0)	(296,0)	(273,0)	(305,0)	(304,0)	(282,0)	
L1D -404>	(0,1)	(-64,1)	(1,20)	(16,2)	(9,2)	(313,1)	(1,0)	(1,0)	(1,0)	(1,0)	(1,0)	(1,0)	(1,0)	(1,0)	(1,0)	(1,0)	
L1D -403>	(93,40)	(260,1)	(97,31)	(105,30)	(92,29)	(266,10)	(1,114)	(104,42)	(403,28)	(113,19)	(90,17)	(250,61)	(121,20)	(102,6)	(117,19)	(114,24)	
L1D -402>	(261,5)	(93,17)	(105,23)	(104,38)	(113,22)	(265,9)	(264,12)	(114,7)	(278,1)	(92,10)	(250,6)	(97,23)	(-42,6)	(95,7)	(121,18)	(403,122)	
L1D -401>	(318,1)	(182,4)	(278,3)	(260,1)	(398,1)	(399,3)	(-26,1)	(0,1)	(11,0)	(196,0)	(403,70)	(121,0)	(1,1)	(197,0)	(8,1)	(313,0)	
L1D -400>	(0,2)	(-64,3)	(254,1)	(400,4)	(464,1)	(121,2)	(2,1)	(112,4)	(122,52)	(384,2)	(105,1)	(363,3)	(399,4)	(278,3)	(403,2)	(1,2)	
L1D -399>	(0,6)	(1,72)	(399,78)	(250,7)	(120,3)	(403,49)	(392,2)	(278,14)	(90,8)	(97,1)	(396,1)	(3,2)	(92,2)	(93,1)	(104,3)	(265,5)	
L1D -398>	(93,6)	(97,11)	(264,4)	(0,20)	(197,2)	(121,18)	(92,11)	(113,6)	(105,2)	(1,76)	(8,2)	(-3,11)	(3,2)	(250,16)	(104,33)	(261,4)	
L1D -397>	(93,1)	(250,1)	(120,1)	(1,83)	(263,1)	(91,5)	(101,2)	(102,1)	(104,1)	(0,1)	(1,0)	(1,0)	(1,0)	(1,0)	(1,0)	(1,0)	
L1D -396>	(-26,1)	(1,7)	(8,1)	(3,1)	(0,3)	(271,1)	(-9,1)	(-64,2)	(112,1)	(250,1)	(197,1)	(278,1)	(1,0)	(1,0)	(1,0)	(1,0)	
L1D -395>	(-1,2)	(93,3)	(101,4)	(0,1)	(1,87)	(-64,3)	(104,5)	(25,2)	(265,1)	(250,10)	(403,1)	(395,39)	(92,6)	(261,1)	(94,3)	(260,1)	
L1D -394>	(101,8)	(3,3)	(200,3)	(250,2)	(395,60)	(102,4)	(97,1)	(202,1)	(396,2)	(186,2)	(175,4)	(394,1)	(316,1)	(274,1)	(106,7)	(278,1)	
L1D -393>	(-64,6)	(393,13)	(175,4)	(122,1)	(8,4)	(0,3)	(206,1)	(128,1)	(197,5)	(395,49)	(391,5)	(-68,1)	(210,1)	(204,1)	(238,1)	(205,1)	
L1D -392>	(183,1)	(392,3)	(-1,1)	(-8,3)	(67,1)	(238,1)	(395,2)	(440,10)	(121,1)	(391,3)	(2,3)	(-16,1)	(1,0)	(1,0)	(1,0)	(1,0)	
L1D -391>	(361,3)	(197,2)	(255,3)	(333,2)	(476,2)	(395,25)	(391,47)	(78,10)	(460,2)	(332,2)	(1,39)	(-64,10)	(274,5)	(11,3)	(139,2)	(175,1)	
L1D -390>	(0,3)	(-64,1)	(183,2)	(255,1)	(2,1)	(1,102)	(264,1)	(114,4)	(-2,3)	(115,1)	(107,2)	(102,1)	(101,1)	(1,0)	(1,0)	(1,0)	
L1D -389>	(-64,4)	(250,1)	(-8,1)	(101,1)	(470,0)	(385,1)	(2,1)	(261,2)	(183,0)	(197,1)	(313,0)	(190,0)	(300,0)	(0,2)	(-55,0)	(1,80)	
L1D -388>	(388,1)	(-8,2)	(0,5)	(-16,15)	(462,1)	(-72,2)	(56,1)	(-1,1)	(8,1)	(-3,11)	(1,6)	(1,0)	(1,0)	(1,0)	(1,0)	(1,0)	
L1D -387>	(2,1)	(387,7)	(192,1)	(1,93)	(3,1)	(0,1)	(104,3)	(118,1)	(1,0)	(1,0)	(1,0)	(1,0)	(1,0)	(1,0)	(1,0)	(1,0)	
L1D -386>	(1,4)	(2,3)	(-64,9)	(208,1)	(121,1)	(387,31)	(0,2)	(296,1)	(-3,2)	(3,1)	(97,3)	(104,2)	(94,1)	(122,2)	(114,1)	(1,0)	
L1D -385>	(0,5)	(-64,7)	(122,25)	(113,2)	(2,4)	(385,2)	(1,1)	(8,34)	(-67,1)	(-2,1)	(383,2)	(387,8)	(336,1)	(313,2)	(404,1)	(197,3)	
L1D -384>	(121,16)	(0,6)	(387,1)	(-64,5)	(384,105)	(400,13)	(319,1)	(392,6)	(113,1)	(111,1)	(416,30)	(112,5)	(-72,5)	(2,1)	(448,2)	(440,3)	
L1D -383>	(-2,1)	(383,60)	(120,3)	(0,5)	(-64,7)	(8,1)	(121,1)	(188,1)	(288,2)	(5,2)	(394,1)	(401,1)	(387,15)	(1,9)	(270,5)	(6,3)	
L1D -382>	(0,1)	(377,2)	(387,2)	(271,1)	(120,1)	(197,2)	(419,9)	(183,1)	(1,94)	(-128,1)	(415,1)	(266,1)	(1,0)	(1,0)	(1,0)	(1,0)	
L1D -381>	(-64,3)	(197,2)	(8,2)	(1,29)	(0,1)	(1,0)	(1,0)	(1,0)	(1,0)	(1,0)	(1,0)	(1,0)	(1,0)	(1,0)	(1,0)	(1,0)	
L1D -380>	(0,4)	(-64,3)	(380,3)	(55,28)	(252,3)	(-16,2)	(296,2)	(-72,2)	(238,2)	(250,7)	(16,1)	(-15,1)	(270,1)	(312,1)	(3,2)	(1,1)	
L1D -379>	(1,45)	(286,1)	(-80,1)	(0,6)	(267,2)	(197,2)	(122,4)	(379,6)	(270,1)	(363,5)	(1,0)	(1,0)	(1,0)	(1,0)	(1,0)	(1,0)	
L1D -378>	(-48,4)	(200,9)	(115,6)	(293,2)	(380,18)	(3,5)	(16,7)	(0,6)	(379,2)	(-64,3)	(-32,4)	(-16,2)	(122,6)	(375,1)	(378,16)	(63,1)	
L1D -377>	(0,12)	(114,9)	(312,8)	(5,11)	(-64,26)	(313,3)	(377,46)	(379,2)	(-6,1)	(344,2)	(1,1)	(8,10)	(197,31)	(282,1)	(286,1)	(126,2)	
L1D -376>	(113,20)	(51,12)	(368,2)	(345,4)	(8,37)	(16,6)	(0,9)	(337,3)	(98,2)	(440,12)	(55,8)	(245,3)	(-7,2)	(7,1)	(116,1)	(-12,2)	
L1D -375>	(347,4)	(296,3)	(92,2)	(379,6)	(95,2)	(375,26)	(60,3)	(-3,2)	(1,3)	(-9,1)	(8,2)	(-55,3)	(197,7)	(-128,8)	(183,4)	(97,3)	
L1D -374>	(-64,1)	(8,7)	(246,1)	(0,3)	(271,2)	(96,9)	(407,3)	(411,3)	(363,1)	(1,21)	(103,1)	(122,7)	(1,0)	(1,0)	(1,0)	(1,0)	
L1D -373>	(-64,22)	(0,5)	(16,2)	(243,2)	(271,14)	(1,9)	(251,1)	(252,1)	(244,1)	(284,1)	(250,1)	(302,1)	(264,1)	(275,1)	(265,1)	(241,1)	
L1D -372>	(0,24)	(372,3)	(55,1)	(468,1)	(356,1)	(-72,6)	(56,1)	(1,0)	(1,0)	(1,0)	(1,0)	(1,0)	(1,0)	(1,0)	(1,0)	(1,0)	
L1D -371>	(176,1)	(174,1)	(8,5)	(16,3)	(3,1)	(-64,1)	(-8,3)	(1,16)	(46,15)	(1,0)	(1,0)	(1,0)	(1,0)	(1,0)	(1,0)	(1,0)	
L1D -370>	(0,1)	(8,10)	(25,28)	(207,1)	(1,2)	(251,1)	(-8,1)	(458,1)	(1,0)	(1,0)	(1,0)	(1,0)	(1,0)	(1,0)	(1,0)	(1,0)	
L1D -369>	(-1,1)	(106,2)	(-64,9)	(277,1)	(274,1)	(8,7)	(16,1)	(160,1)	(157,2)	(367,1)	(371,1)	(1,0)	(1,0)	(1,0)	(1,0)	(1,0)	
L1D -368>	(447,1)	(437,2)	(368,30)	(361,16)	(438,25)	(0,2)	(8,3)	(440,1)	(439,10)	(-64,8)	(55,17)	(432,1)	(253,2)	(252,6)	(245,1)	(309,2)	
L1D -367>	(104,2)	(-64,26)	(368,2)	(5,3)	(22,1)	(0,1)	(367,2)	(235,1)	(1,0)	(1,0)	(1,0)	(1,0)	(1,0)	(1,0)	(1,0)	(1,0)	
L1D -366>	(8,1)	(3,8)	(5,2)	(-64,5)	(6,2)	(78,2)	(241,1)	(399,1)	(366,1)	(252,1)	(365,1)	(1,0)	(1,0)	(1,0)	(1,0)	(1,0)	
L1D -365>	(-64,59)	(369,2)	(0,1)	(365,1)	(235,1)	(1,0)	(1,0)	(1,0)	(1,0)	(1,0)	(1,0)	(1,0)	(1,0)	(1,0)	(1,0)	(1,0)	
L1D -364>	(-64,80)	(79,1)	(7,1)	(50,2)	(52,9)	(316,2)	(364,2)	(51,6)	(363,1)	(227,1)	(236,3)	(353,1)	(49,1)	(365,1)	(-80,2)	(0,1)	
L1D -363>	(-1,8)	(51,9)	(-64,1)	(361,1)	(75,62)	(355,1)	(-8,1)	(5,2)	(367,2)	(46,1)	(1,0)	(1,0)	(1,0)	(1,0)	(1,0)	(1,0)	
L1D -362>	(50,3)	(36,1)	(52,1)	(-64,8)	(51,1)	(27,3)	(464,1)	(17,1)	(-8,1)	(0,3)	(341,1)	(366,1)	(314,1)	(468,1)	(2,1)	(1,0)	
L1D -361>	(0,1)	(-64,29)	(-16,1)	(354,2)	(116,1)	(359,1)	(44,1)	(-8,3)	(361,6)	(49,1)	(-2,1)	(1,1)	(366,1)	(340,1)	(1,0)	(1,0)	
L1D -360>	(48,18)	(1,2)	(358,5)	(313,3)	(-1,1)	(51,1)	(-128,13)	(40,1)	(64,4)	(-64,10)	(360,12)	(361,14)	(2,1)	(47,13)	(72,1)	(359,2)	
L1D -359>	(1,4)	(0,9)	(331,5)	(47,15)	(76,4)	(93,3)	(46,1)	(267,1)	(-2,1)	(-3,79)	(-128,2)	(364,1)	(8,3)	(-64,3)	(359,2)	(3,3)	
L1D -358>	(79,1)	(46,7)	(0,13)	(364,2)	(363,2)	(-3,39)	(-64,1)	(347,1)	(275,1)	(3,6)	(243,1)	(128,6)	(362,2)	(80,6)	(-8,1)	(41,1)	
L1D -357>	(351,1)	(0,2)	(-128,4)	(357,2)	(79,2)	(350,2)	(47,1)	(48,1)	(46,1)	(42,1)	(-57,1)	(57,1)	(1,0)	(1,0)	(1,0)	(1,0)	
L1D -356>	(361,1)	(343,2)	(0,3)	(79,2)	(356,2)	(47,6)	(347,1)	(41,1)	(48,2)	(113,1)	(447,1)	(353,1)	(40,1)	(349,1)	(44,1)	(1,0)	
L1D -355>	(43,4)	(3,3)	(438,2)	(-16,5)	(359,2)	(353,1)	(341,6)	(8,2)	(467,1)	(347,1)	(47,2)	(44,1)	(355,1)	(265,1)	(447,3)	(279,1)	
L1D -354>	(-64,6)	(364,1)	(13,2)	(0,1)	(45,2)	(474,1)	(354,1)	(359,1)	(1,0)	(1,0)	(1,0)	(1,0)	(1,0)	(1,0)	(1,0)	(1,0)	
L1D -353>	(-64,1)	(41,1)	(243,1)	(342,1)	(122,1)	(16,1)	(47,1)	(1,1)	(343,1)	(447,1)	(1,0)	(1,0)	(1,0)	(1,0)	(1,0)	(1,0)	
L1D -352>	(352,3)	(360,1)	(1,1)	(0,1)	(344,3)	(-64,7)	(-128,6)	(354,1)	(471,3)	(122,1)	(253,1)	(361,1)	(439,1)	(2,1)	(357,2)	(339,1)	
L1D -351>	(-128,1)	(121,1)	(122,1)	(39,1)	(44,1)	(351,1)	(29,1)	(96,3)	(15,1)	(363,2)	(266,1)	(1,1)	(340,1)	(360,1)	(-73,1)	(1,0)	
L1D -350>	(-64,1)	(364,1)	(128,1)	(471,1)	(120,2)	(2,1)	(-79,1)	(39,1)	(-128,1)	(-1,1)	(48,1)	(464,3)	(1,0)	(1,0)	(1,0)	(1,0)	
L1D -349>	(-128,3)	(48,1)	(351,1)	(66,1)	(321,1)	(79,1)	(9,1)	(244,2)	(225,1)	(17,1)	(37,2)	(219,1)	(1,0)	(1,0)	(1,0)	(1,0)	
L1D -348>	(-8,1)	(36,1)	(0,1)	(-32,1)	(122,1)	(5,1)	(-16,1)	(348,2)	(234,2)	(1,0)	(1,0)	(1,0)	(1,0)	(1,0)	(1,0)	(1,0)	
L1D -347>	(347,2)	(262,1)	(252,1)	(364,1)	(-64,1)	(270,1)	(360,3)	(332,1)	(34,1)	(459,2)	(334,1)	(1,0)	(1,0)	(1,0)	(1,0)	(1,0)	
L1D -346>	(466,34)	(364,1)	(-64,2)	(358,2)	(360,2)	(430,1)	(1,0)	(1,0)	(1,0)	(1,0)	(1,0)	(1,0)	(1,0)	(1,0)	(1,0)	(1,0)	
L1D -345>	(-64,3)	(275,2)	(-16,3)	(243,11)	(297,2)	(-3,2)	(-47,17)	(44,3)	(22,13)	(23,18)	(0,2)	(317,1)	(-22,1)	(2,1)	(21,1)	(-128,3)	
L1D -344>	(-16,6)	(0,5)	(-64,3)	(-128,3)	(-8,9)	(363,2)	(344,1)	(-7,5)	(106,2)	(458,1)	(-6,1)	(356,1)	(360,1)	(316,3)	(1,0)	(1,0)	
L1D -343>	(275,23)	(8,4)	(274,1)	(277,1)	(364,1)	(-128,9)	(3,1)	(363,2)	(1,1)	(223,3)	(358,1)	(359,1)	(-64,7)	(113,1)	(360,2)	(-8,1)	
L1D -342>	(275,1)	(363,1)	(-128,1)	(360,1)	(334,1)	(30,2)	(46,1)	(1,0)	(1,0)	(1,0)	(1,0)	(1,0)	(1,0)	(1,0)	(1,0)	(1,0)	
L1D -341>	(2,1)	(364,1)	(-64,6)	(360,1)	(1,0)	(1,0)	(1,0)	(1,0)	(1,0)	(1,0)	(1,0)	(1,0)	(1,0)	(1,0)	(1,0)	(1,0)	
L1D -340>	(-128,2)	(0,2)	(-64,3)	(454,2)	(-1,1)	(453,11)	(357,1)	(-6,1)	(359,1)	(1,0)	(1,0)	(1,0)	(1,0)	(1,0)	(1,0)	(1,0)	
L1D -339>	(27,5)	(-64,11)	(338,1)	(458,6)	(342,6)	(26,11)	(22,1)	(360,3)	(258,2)	(-1,2)	(25,1)	(23,3)	(461,4)	(0,5)	(1,0)	(1,0)	
L1D -338>	(275,7)	(424,2)	(337,4)	(26,5)	(23,3)	(25,1)	(335,1)	(24,4)	(146,1)	(-128,2)	(458,6)	(466,4)	(251,1)	(247,1)	(148,2)	(338,3)	
L1D -337>	(26,2)	(243,5)	(274,2)	(275,39)	(283,2)	(336,1)	(27,1)	(242,2)	(337,4)	(316,8)	(361,1)	(424,1)	(-128,2)	(347,1)	(25,1)	(1,0)	
L1D -336>	(275,2)	(338,2)	(25,2)	(-128,17)	(24,12)	(342,3)	(471,1)	(122,1)	(-64,9)	(352,1)	(335,2)	(148,1)	(52,1)	(1,1)	(320,1)	(-1,1)	
L1D -335>	(-64,57)	(23,2)	(313,3)	(334,4)	(15,14)	(2,1)	(-128,10)	(112,3)	(344,1)	(315,1)	(-3,2)	(-15,1)	(34,1)	(1,0)	(1,0)	(1,0)	
L1D -334>	(270,0)	(313,1)	(283,0)	(286,0)	(331,0)	(122,0)	(362,0)	(-11,74)	(-64,2)	(115,0)	(337,0)	(22,0)	(-51,0)	(1,0)	(1,0)	(1,0)	
L1D -333>	(313,2)	(66,1)	(0,1)	(333,2)	(332,1)	(21,1)	(325,1)	(-64,2)	(-11,1)	(1,0)	(1,0)	(1,0)	(1,0)	(1,0)	(1,0)	(1,0)	
L1D -332>	(-128,8)	(20,5)	(122,1)	(332,3)	(313,2)	(314,1)	(420,2)	(1,0)	(1,0)	(1,0)	(1,0)	(1,0)	(1,0)	(1,0)	(1,0)	(1,0)	
L1D -331>	(322,8)	(-128,14)	(2,1)	(0,5)	(315,1)	(494,1)	(-64,17)	(339,1)	(323,2)	(-62,1)	(19,4)	(330,1)	(112,1)	(324,2)	(1,0)	(1,0)	
L1D -330>	(329,6)	(276,2)	(301,1)	(0,12)	(283,1)	(267,5)	(18,3)	(-64,1)	(229,2)	(450,3)	(268,3)	(330,1)	(126,1)	(15,2)	(458,1)	(258,1)	
L1D -329>	(329,2)	(14,1)	(243,1)	(0,6)	(239,1)	(139,1)	(2,1)	(130,1)	(-128,5)	(15,1)	(17,2)	(313,2)	(328,2)	(458,4)	(197,1)	(1,0)	
L1D -328>	(7,14)	(-64,7)	(122,2)	(-128,10)	(10,1)	(313,2)	(2,4)	(312,2)	(328,1)	(-6,4)	(16,4)	(13,1)	(1,0)	(1,0)	(1,0)	(1,0)	
L1D -327>	(448,1)	(8,2)	(325,2)	(313,1)	(-64,3)	(14,1)	(-128,4)	(15,1)	(5,0)	(-1,0)	(384,0)	(0,81)	(-3,0)	(1,0)	(1,0)	(1,0)	
L1D -326>	(313,4)	(-128,13)	(2,5)	(-55,1)	(324,2)	(120,1)	(0,1)	(-64,14)	(459,1)	(-52,8)	(-4,1)	(-51,2)	(-3,1)	(6,2)	(-5,1)	(-11,1)	
L1D -325>	(-11,97)	(197,1)	(454,1)	(113,0)	(13,1)	(191,0)	(190,0)	(321,0)	(5,0)	(-6,8)	(-14,0)	(115,0)	(-5,0)	(325,0)	(255,0)	(2,0)	
L1D -324>	(-128,3)	(113,6)	(-12,5)	(122,12)	(-11,5)	(121,1)	(2,1)	(323,1)	(313,2)	(275,2)	(-21,4)	(-1,5)	(-64,1)	(465,5)	(71,1)	(112,1)	
L1D -323>	(314,2)	(121,2)	(0,6)	(122,3)	(315,1)	(416,1)	(313,2)	(120,1)	(1,4)	(-64,1)	(11,2)	(453,1)	(112,1)	(13,1)	(10,2)	(468,1)	
L1D -322>	(267,5)	(409,4)	(10,4)	(67,3)	(131,2)	(3,3)	(123,3)	(-63,2)	(315,7)	(322,4)	(0,61)	(96,2)	(128,5)	(410,1)	(-3,54)	(8,2)	
L1D -321>	(8,2)	(2,2)	(90,1)	(-64,24)	(321,6)	(66,2)	(349,1)	(454,4)	(0,3)	(-1,3)	(499,1)	(6,1)	(-2,1)	(345,1)	(1,0)	(1,0)	
L1D -320>	(7,6)	(320,4)	(448,2)	(0,3)	(10,1)	(122,6)	(-40,1)	(107,1)	(114,3)	(18,1)	(-1,2)	(120,1)	(434,1)	(-64,24)	(-72,2)	(2,1)	
L1D -319>	(9,22)	(384,1)	(40,1)	(6,4)	(318,3)	(446,2)	(316,1)	(113,1)	(0,1)	(121,1)	(104,1)	(448,1)	(317,3)	(105,1)	(319,3)	(176,1)	
L1D -318>	(40,5)	(91,2)	(9,17)	(111,2)	(120,9)	(0,5)	(4,3)	(317,3)	(-14,5)	(119,2)	(8,3)	(121,1)	(197,4)	(-11,1)	(-7,1)	(-64,18)	
L1D -317>	(313,8)	(-41,2)	(4,12)	(-11,6)	(7,2)	(-37,1)	(318,1)	(317,13)	(155,1)	(315,2)	(-15,4)	(2,10)	(314,6)	(-46,1)	(316,4)	(1,4)	
L1D -316>	(0,3)	(-7,3)	(-11,15)	(313,20)	(314,4)	(-6,7)	(316,14)	(-2,4)	(311,1)	(310,4)	(122,20)	(115,5)	(4,5)	(8,1)	(64,2)	(3,5)	
L1D -315>	(285,2)	(-49,3)	(309,3)	(-64,5)	(315,2)	(3,14)	(303,3)	(-45,3)	(299,3)	(0,7)	(311,2)	(-25,1)	(121,3)	(-10,1)	(113,1)	(-5,1)	
L1D -314>	(120,2)	(2,4)	(314,7)	(-4,5)	(312,5)	(-64,55)	(-35,1)	(326,1)	(316,3)	(0,1)	(240,1)	(-30,1)	(299,1)	(304,4)	(295,1)	(-13,1)	
L1D -313>	(-5,3)	(2,34)	(0,119)	(-2,9)	(197,3)	(313,7)	(-27,1)	(315,2)	(310,8)	(308,1)	(-4,3)	(309,4)	(311,10)	(-128,2)	(303,1)	(-39,1)	
L1D -312>	(312,17)	(314,47)	(0,1)	(311,70)	(310,62)	(313,51)	(2,23)	(309,44)	(-27,2)	(-64,8)	(292,5)	(315,55)	(319,25)	(326,8)	(13,12)	(323,12)	
L1D -311>	(-6,2)	(3,6)	(-37,2)	(197,1)	(307,1)	(-27,2)	(314,6)	(309,1)	(-48,2)	(89,65)	(311,4)	(-1,20)	(290,4)	(318,4)	(-14,2)	(312,4)	
L1D -310>	(91,5)	(1,4)	(315,1)	(82,3)	(168,12)	(-9,3)	(4,4)	(-2,54)	(313,9)	(-17,2)	(3,4)	(12,3)	(309,4)	(312,9)	(310,3)	(302,2)	
L1D -309>	(457,21)	(-64,81)	(348,1)	(133,2)	(-52,3)	(316,6)	(-9,16)	(308,8)	(197,2)	(-8,2)	(309,125)	(-3,10)	(199,16)	(330,7)	(2,3)	(0,3)	
L1D -308>	(2,4)	(0,64)	(5,3)	(101,2)	(-2,0)	(106,1)	(104,0)	(109,1)	(465,0)	(94,0)	(312,2)	(80,0)	(310,0)	(308,50)	(165,1)	(309,0)	
L1D -307>	(458,8)	(0,2)	(307,108)	(-1,2)	(18,2)	(339,1)	(291,1)	(5,1)	(309,1)	(-5,1)	(255,1)	(1,0)	(1,0)	(1,0)	(1,0)	(1,0)	
L1D -306>	(8,6)	(24,24)	(-26,4)	(-1,1)	(163,1)	(2,2)	(0,4)	(99,1)	(3,7)	(-7,1)	(93,2)	(55,1)	(320,1)	(-5,3)	(306,81)	(295,2)	
L1D -305>	(457,10)	(-64,86)	(4,6)	(310,2)	(-11,5)	(264,3)	(275,3)	(409,2)	(8,2)	(259,1)	(-7,3)	(305,95)	(272,2)	(24,33)	(-8,6)	(7,4)	
L1D -304>	(323,2)	(0,6)	(7,5)	(310,1)	(311,6)	(-6,1)	(-2,1)	(306,3)	(-14,1)	(100,1)	(-12,4)	(304,40)	(-128,51)	(4,1)	(-64,4)	(312,1)	
L1D -303>	(0,7)	(32,2)	(24,2)	(461,3)	(288,2)	(-8,2)	(-48,1)	(323,2)	(-9,2)	(322,2)	(-64,11)	(3,1)	(27,2)	(-16,2)	(311,2)	(2,1)	
L1D -302>	(310,2)	(1,4)	(-10,1)	(322,1)	(7,1)	(-64,7)	(-1,1)	(302,5)	(159,6)	(-2,9)	(409,28)	(-128,5)	(301,1)	(384,1)	(416,1)	(118,1)	
L1D -301>	(-64,46)	(0,9)	(457,3)	(24,14)	(449,4)	(9,9)	(-18,3)	(-8,36)	(1,2)	(301,2)	(120,2)	(8,2)	(311,1)	(-4,13)	(64,1)	(203,1)	
L1D -300>	(-64,43)	(-12,4)	(197,4)	(2,28)	(-4,5)	(157,4)	(-8,3)	(-1,1)	(0,16)	(300,9)	(122,1)	(183,11)	(66,2)	(57,2)	(1,1)	(9,2)	
L1D -299>	(327,2)	(311,3)	(-11,2)	(310,3)	(9,2)	(259,1)	(335,1)	(-128,1)	(-76,1)	(121,2)	(448,1)	(299,1)	(-64,2)	(14,1)	(-13,1)	(112,1)	
L1D -298>	(2,116)	(0,8)	(15,0)	(-13,16)	(298,1)	(-14,4)	(-24,7)	(26,0)	(1,3)	(-103,0)	(-10,0)	(-18,0)	(102,0)	(1,0)	(1,0)	(1,0)	
L1D -297>	(18,2)	(1,101)	(0,48)	(-64,11)	(457,4)	(449,2)	(264,2)	(6,3)	(297,7)	(295,4)	(-13,5)	(-128,7)	(-1,1)	(459,3)	(183,2)	(-79,1)	
L1D -296>	(-4,5)	(296,14)	(0,6)	(-64,43)	(57,2)	(298,1)	(-66,2)	(-128,3)	(-16,2)	(316,1)	(75,12)	(294,1)	(297,2)	(-26,2)	(-5,1)	(311,1)	
L1D -295>	(0,4)	(-17,1)	(293,2)	(409,2)	(-16,2)	(287,1)	(82,2)	(-128,30)	(2,2)	(461,3)	(337,1)	(361,1)	(-15,1)	(-64,1)	(192,2)	(295,65)	
L1D -294>	(12,2)	(27,3)	(67,35)	(76,29)	(255,2)	(-13,2)	(294,52)	(57,1)	(179,1)	(211,1)	(-64,2)	(-24,5)	(9,1)	(15,52)	(287,1)	(8,3)	
L1D -293>	(457,8)	(264,10)	(313,2)	(291,2)	(272,3)	(458,4)	(293,57)	(-13,2)	(-128,1)	(288,7)	(165,4)	(197,26)	(337,6)	(361,17)	(326,15)	(459,3)	
L1D -292>	(337,4)	(76,21)	(69,29)	(292,78)	(67,16)	(290,5)	(451,5)	(317,3)	(361,13)	(-64,5)	(326,9)	(246,4)	(459,7)	(344,3)	(293,1)	(325,2)	
L1D -291>	(347,3)	(348,2)	(458,15)	(287,1)	(48,1)	(66,2)	(263,1)	(-9,1)	(280,1)	(291,91)	(298,1)	(289,1)	(453,1)	(343,2)	(311,1)	(-16,1)	
L1D -290>	(1,4)	(-8,9)	(83,2)	(263,10)	(0,9)	(258,7)	(-22,3)	(197,6)	(342,3)	(290,60)	(440,1)	(70,27)	(-9,3)	(291,2)	(470,1)	(350,2)	
L1D -289>	(457,40)	(264,125)	(280,5)	(267,21)	(259,7)	(272,75)	(260,5)	(263,25)	(275,95)	(288,45)	(265,5)	(289,11)	(-1,1)	(338,5)	(250,21)	(-2,4)	
L1D -288>	(249,4)	(288,32)	(250,4)	(256,6)	(465,4)	(105,125)	(280,2)	(257,2)	(-15,1)	(-128,3)	(3,1)	(-2,1)	(281,14)	(-64,2)	(-72,1)	(70,1)	
L1D -287>	(287,4)	(451,3)	(333,2)	(1,4)	(122,5)	(461,32)	(-25,1)	(105,37)	(2,4)	(197,5)	(8,3)	(453,18)	(372,1)	(357,1)	(-64,4)	(279,2)	
L1D -286>	(-11,16)	(7,3)	(393,4)	(197,2)	(-64,5)	(416,5)	(-9,11)	(-7,68)	(-16,6)	(60,3)	(285,3)	(-36,1)	(32,1)	(-5,4)	(105,3)	(-8,2)	
L1D -285>	(197,4)	(98,5)	(7,4)	(285,11)	(449,2)	(120,8)	(60,1)	(337,1)	(24,1)	(2,1)	(-32,1)	(-9,4)	(275,1)	(465,2)	(-64,2)	(-16,1)	
L1D -284>	(281,31)	(105,21)	(289,4)	(250,4)	(284,34)	(0,4)	(340,41)	(288,34)	(252,6)	(341,5)	(97,5)	(122,1)	(451,4)	(273,5)	(280,8)	(249,8)	
L1D -283>	(255,17)	(283,8)	(191,3)	(105,36)	(275,5)	(282,4)	(257,2)	(0,12)	(96,16)	(343,3)	(304,2)	(384,3)	(416,2)	(361,2)	(239,1)	(350,1)	
L1D -282>	(255,3)	(111,1)	(197,23)	(272,2)	(0,26)	(1,29)	(286,2)	(282,6)	(342,5)	(304,2)	(105,2)	(-29,3)	(274,2)	(451,2)	(313,2)	(257,2)	
L1D -281>	(256,3)	(449,5)	(260,4)	(279,9)	(321,3)	(453,3)	(466,1)	(304,2)	(-128,12)	(105,33)	(275,11)	(274,7)	(268,17)	(292,6)	(290,2)	(265,6)	
L1D -280>	(-8,7)	(391,2)	(255,6)	(267,3)	(281,4)	(260,3)	(264,11)	(256,3)	(284,29)	(248,13)	(-128,20)	(288,2)	(252,36)	(340,2)	(197,1)	(273,1)	
L1D -279>	(256,23)	(0,13)	(267,13)	(105,29)	(453,53)	(197,9)	(-3,6)	(325,9)	(274,14)	(279,6)	(257,5)	(258,1)	(-128,9)	(255,17)	(344,4)	(103,3)	
L1D -278>	(0,95)	(-1,2)	(103,2)	(16,2)	(113,3)	(254,2)	(471,3)	(-117,2)	(274,1)	(-64,3)	(263,1)	(246,3)	(379,1)	(24,1)	(271,2)	(23,3)	
L1D -277>	(241,2)	(-5,2)	(368,13)	(326,4)	(360,3)	(365,3)	(275,4)	(0,9)	(-15,3)	(105,44)	(242,2)	(255,3)	(-17,1)	(259,8)	(277,47)	(352,5)	
L1D -276>	(-64,12)	(104,6)	(485,2)	(276,104)	(360,3)	(89,23)	(281,2)	(105,11)	(311,6)	(328,2)	(310,2)	(361,10)	(256,4)	(444,2)	(7,2)	(-6,1)	
L1D -275>	(105,21)	(343,12)	(350,7)	(259,1)	(274,8)	(310,5)	(317,3)	(0,55)	(361,44)	(326,27)	(368,9)	(330,15)	(459,19)	(-64,12)	(315,3)	(318,3)	
L1D -274>	(276,11)	(-64,3)	(326,11)	(0,19)	(-9,4)	(-128,3)	(-2,3)	(309,11)	(249,4)	(105,2)	(1,7)	(459,7)	(334,3)	(-13,2)	(250,2)	(332,1)	
L1D -273>	(1,35)	(272,5)	(241,3)	(259,7)	(59,2)	(465,4)	(256,3)	(255,1)	(290,7)	(473,1)	(105,22)	(441,1)	(249,1)	(-8,2)	(475,1)	(0,3)	
L1D -272>	(0,39)	(256,3)	(268,10)	(1,62)	(16,3)	(-64,17)	(252,5)	(272,11)	(465,2)	(307,2)	(-128,14)	(264,28)	(260,12)	(292,3)	(276,3)	(288,2)	
L1D -271>	(1,35)	(-128,29)	(263,3)	(248,5)	(106,4)	(0,17)	(252,2)	(-26,2)	(428,4)	(-4,2)	(271,9)	(-64,16)	(105,31)	(437,13)	(272,2)	(270,3)	
L1D -270>	(0,43)	(384,1)	(253,0)	(-64,2)	(-9,0)	(1,92)	(-128,1)	(16,2)	(-1,0)	(270,2)	(2,0)	(271,1)	(-16,3)	(-4,2)	(-22,4)	(249,0)	
L1D -269>	(384,8)	(260,4)	(268,2)	(466,2)	(269,3)	(468,3)	(-4,22)	(448,5)	(72,3)	(-16,5)	(82,6)	(5,4)	(104,2)	(-23,2)	(369,1)	(0,1)	
L1D -268>	(0,6)	(340,9)	(268,25)	(281,16)	(256,65)	(273,11)	(248,4)	(282,5)	(264,4)	(249,5)	(288,16)	(332,24)	(337,1)	(451,16)	(258,5)	(465,24)	
L1D -267>	(95,61)	(288,2)	(-1,2)	(307,3)	(264,2)	(1,35)	(272,2)	(0,36)	(89,6)	(80,21)	(315,8)	(444,12)	(267,3)	(-64,31)	(112,5)	(121,2)	
L1D -266>	(-1,6)	(258,3)	(0,37)	(266,21)	(272,4)	(332,1)	(1,60)	(267,3)	(256,3)	(304,2)	(250,3)	(-4,4)	(276,6)	(465,5)	(293,3)	(268,3)	
L1D -265>	(290,6)	(304,8)	(268,45)	(340,1)	(265,13)	(7,4)	(264,90)	(276,9)	(-16,12)	(275,12)	(256,9)	(273,3)	(288,15)	(465,18)	(-3,3)	(250,5)	
L1D -264>	(284,18)	(340,5)	(465,8)	(332,1)	(-128,6)	(264,45)	(277,3)	(296,4)	(5,12)	(-64,4)	(2,3)	(256,19)	(299,3)	(-2,17)	(252,85)	(260,7)	
L1D -263>	(245,5)	(437,19)	(-128,26)	(307,3)	(-16,3)	(39,2)	(0,13)	(264,2)	(-64,2)	(-8,2)	(104,1)	(201,1)	(197,2)	(420,1)	(10,1)	(137,1)	
L1D -262>	(-64,2)	(-3,99)	(3,52)	(0,17)	(105,3)	(197,3)	(79,2)	(262,3)	(2,2)	(8,4)	(341,1)	(377,4)	(5,4)	(183,5)	(-8,2)	(261,2)	
L1D -261>	(243,4)	(270,9)	(122,30)	(2,35)	(1,11)	(113,1)	(261,42)	(183,41)	(197,2)	(0,82)	(377,8)	(260,2)	(465,4)	(115,9)	(8,10)	(5,6)	
L1D -260>	(5,7)	(-5,35)	(112,3)	(8,8)	(472,1)	(340,11)	(266,2)	(260,84)	(448,6)	(469,6)	(122,4)	(319,9)	(0,25)	(268,3)	(121,13)	(465,5)	
L1D -259>	(292,9)	(290,10)	(310,7)	(250,5)	(121,27)	(112,16)	(264,9)	(0,99)	(259,7)	(-1,9)	(120,8)	(2,12)	(113,1)	(122,11)	(-5,17)	(416,6)	
L1D -258>	(0,54)	(276,13)	(258,17)	(465,6)	(95,4)	(264,6)	(267,15)	(416,8)	(80,12)	(1,4)	(121,7)	(96,6)	(112,4)	(120,1)	(293,6)	(268,10)	
L1D -257>	(264,14)	(250,9)	(287,5)	(120,2)	(284,2)	(465,9)	(0,76)	(258,21)	(282,2)	(275,15)	(266,2)	(304,3)	(67,2)	(260,14)	(268,44)	(259,19)	
L1D -256>	(465,10)	(282,6)	(256,34)	(332,1)	(297,4)	(1,7)	(0,116)	(289,6)	(304,7)	(252,12)	(260,7)	(264,5)	(288,5)	(283,13)	(257,4)	(268,59)	
L1D -255>	(0,30)	(255,34)	(183,2)	(128,7)	(73,2)	(111,3)	(-8,21)	(-64,3)	(219,4)	(191,2)	(-55,4)	(16,19)	(-86,2)	(197,6)	(7,3)	(136,1)	
L1D -254>	(263,5)	(16,1)	(72,2)	(121,13)	(390,2)	(254,17)	(-7,7)	(0,13)	(7,3)	(197,5)	(-8,5)	(1,7)	(8,12)	(466,5)	(81,2)	(-16,3)	
L1D -253>	(262,6)	(357,10)	(120,1)	(114,3)	(-64,8)	(0,15)	(452,10)	(257,4)	(261,2)	(264,2)	(256,3)	(-8,2)	(1,3)	(304,3)	(333,4)	(197,2)	
L1D -252>	(7,122)	(465,1)	(341,20)	(469,10)	(332,49)	(340,50)	(6,107)	(252,33)	(336,5)	(451,8)	(0,5)	(362,5)	(325,12)	(1,13)	(349,14)	(460,19)	
L1D -251>	(165,1)	(5,81)	(443,0)	(-5,0)	(251,0)	(8,0)	(113,1)	(273,0)	(112,0)	(118,0)	(-1,19)	(448,1)	(302,0)	(282,0)	(0,0)	(-8,0)	
L1D -250>	(101,33)	(103,18)	(121,84)	(90,12)	(250,82)	(254,11)	(263,1)	(117,8)	(91,13)	(104,45)	(114,14)	(102,29)	(97,4)	(265,14)	(110,13)	(70,6)	
L1D -249>	(264,27)	(357,8)	(256,9)	(273,10)	(272,5)	(247,1)	(290,2)	(457,3)	(265,4)	(249,7)	(250,4)	(268,4)	(465,6)	(288,4)	(257,3)	(260,4)	
L1D -248>	(2,13)	(281,10)	(0,118)	(302,4)	(447,21)	(465,2)	(252,19)	(260,6)	(268,3)	(264,7)	(248,9)	(284,7)	(341,3)	(362,2)	(216,3)	(472,2)	
L1D -247>	(326,2)	(197,6)	(337,6)	(16,15)	(-8,3)	(316,2)	(275,1)	(247,3)	(8,51)	(0,59)	(276,1)	(454,1)	(346,4)	(373,4)	(246,1)	(357,1)	
L1D -246>	(-6,2)	(246,8)	(274,2)	(389,2)	(40,10)	(0,99)	(-64,24)	(-7,7)	(10,5)	(312,1)	(16,3)	(8,5)	(396,4)	(-9,3)	(-76,8)	(52,1)	
L1D -245>	(0,94)	(56,5)	(459,2)	(-15,5)	(-64,11)	(260,2)	(24,9)	(466,2)	(245,2)	(1,1)	(438,6)	(345,1)	(352,2)	(268,1)	(270,1)	(153,1)	
L1D -244>	(0,106)	(243,2)	(-7,4)	(-64,10)	(128,2)	(-3,1)	(-6,2)	(10,3)	(357,1)	(-48,1)	(-5,2)	(56,2)	(-10,2)	(71,2)	(77,1)	(244,12)	
L1D -243>	(2,45)	(0,64)	(-64,0)	(97,1)	(113,1)	(245,1)	(243,5)	(102,0)	(-2,8)	(278,0)	(-7,0)	(244,0)	(361,0)	(6,0)	(-9,0)	(-48,0)	
L1D -242>	(47,87)	(1,1)	(326,1)	(0,70)	(318,1)	(-64,1)	(242,7)	(104,1)	(-8,4)	(435,12)	(431,2)	(-29,0)	(317,0)	(361,0)	(330,0)	(261,0)	
L1D -241>	(1,2)	(4,3)	(246,5)	(274,11)	(-9,29)	(-64,6)	(10,9)	(209,4)	(434,2)	(448,2)	(79,7)	(442,8)	(-14,1)	(0,10)	(385,1)	(387,1)	
L1D -240>	(0,11)	(74,3)	(64,86)	(-11,3)	(240,1)	(447,1)	(-73,0)	(-128,1)	(-64,21)	(-55,0)	(-60,0)	(56,2)	(256,0)	(273,0)	(248,1)	(269,0)	
L1D -239>	(0,11)	(79,7)	(186,9)	(1,9)	(316,2)	(-64,18)	(315,2)	(70,2)	(-9,3)	(357,2)	(56,2)	(239,1)	(-7,3)	(238,2)	(-128,2)	(428,3)	
L1D -238>	(-64,10)	(266,7)	(185,3)	(237,3)	(446,3)	(238,13)	(0,3)	(404,5)	(398,3)	(1,2)	(275,2)	(-9,7)	(174,1)	(450,4)	(357,2)	(221,1)	
L1D -237>	(0,2)	(309,7)	(251,9)	(56,2)	(303,2)	(237,5)	(-17,2)	(460,1)	(55,3)	(47,1)	(377,2)	(404,1)	(13,4)	(229,2)	(435,1)	(-64,3)	
L1D -236>	(8,2)	(-64,124)	(437,2)	(166,2)	(22,2)	(1,1)	(-144,4)	(427,4)	(232,2)	(236,8)	(9,1)	(264,1)	(423,1)	(0,2)	(56,1)	(304,1)	
L1D -235>	(-64,2)	(-1,3)	(395,11)	(284,2)	(68,4)	(315,2)	(444,2)	(235,3)	(272,2)	(365,1)	(311,3)	(430,1)	(338,3)	(33,1)	(32,1)	(52,1)	
L1D -234>	(47,1)	(8,1)	(32,2)	(-8,1)	(-64,3)	(-2,4)	(13,2)	(0,3)	(233,1)	(-66,1)	(253,1)	(261,1)	(1,0)	(1,0)	(1,0)	(1,0)	
L1D -233>	(236,2)	(291,1)	(433,1)	(233,3)	(68,1)	(442,1)	(0,2)	(232,2)	(272,1)	(8,2)	(-64,2)	(349,1)	(316,1)	(1,1)	(1,0)	(1,0)	
L1D -232>	(-64,9)	(-15,2)	(5,5)	(315,7)	(232,13)	(110,2)	(300,5)	(292,15)	(1,26)	(429,5)	(220,5)	(271,2)	(400,2)	(248,2)	(224,10)	(431,1)	
L1D -231>	(211,1)	(191,1)	(3,3)	(223,1)	(150,1)	(79,1)	(0,1)	(-64,58)	(-10,1)	(395,89)	(284,13)	(1,1)	(203,1)	(226,2)	(78,2)	(227,1)	
L1D -230>	(-64,2)	(301,1)	(2,2)	(230,2)	(357,1)	(223,2)	(78,8)	(0,2)	(79,4)	(64,1)	(-128,19)	(197,1)	(186,1)	(-1,1)	(3,1)	(1,0)	
L1D -229>	(-64,7)	(8,2)	(110,5)	(243,2)	(301,2)	(229,5)	(442,2)	(217,2)	(101,1)	(419,19)	(245,1)	(415,1)	(42,1)	(-1,1)	(214,1)	(225,1)	
L1D -228>	(9,9)	(8,4)	(-1,2)	(415,3)	(296,13)	(228,5)	(419,4)	(3,3)	(292,8)	(315,9)	(300,7)	(236,7)	(1,5)	(227,6)	(429,14)	(-64,1)	
L1D -227>	(1,2)	(99,1)	(-1,5)	(224,2)	(8,2)	(227,26)	(-64,5)	(68,15)	(2,3)	(-248,1)	(180,2)	(110,5)	(82,1)	(-242,1)	(357,7)	(-73,2)	
L1D -226>	(0,45)	(98,2)	(227,7)	(-55,10)	(21,12)	(226,19)	(188,2)	(222,2)	(-60,6)	(127,5)	(310,5)	(-64,2)	(-243,3)	(28,12)	(24,24)	(-9,20)	
L1D -225>	(1,30)	(0,10)	(224,3)	(232,2)	(218,5)	(28,2)	(225,7)	(236,6)	(-2,9)	(227,6)	(-64,14)	(21,3)	(-6,1)	(-257,3)	(139,1)	(24,17)	
L1D -224>	(0,14)	(192,3)	(-64,72)	(211,8)	(-222,3)	(224,13)	(-18,7)	(66,4)	(226,3)	(236,3)	(208,4)	(1,9)	(-88,2)	(-176,1)	(-248,35)	(199,10)	
L1D -223>	(2,9)	(71,1)	(387,7)	(0,123)	(223,5)	(276,1)	(227,2)	(-64,15)	(-7,1)	(100,1)	(-57,1)	(8,1)	(-257,1)	(107,1)	(221,1)	(59,1)	
L1D -222>	(226,9)	(411,3)	(446,4)	(51,2)	(117,2)	(82,2)	(1,4)	(-257,14)	(-183,2)	(-250,2)	(57,2)	(49,6)	(17,2)	(33,5)	(208,11)	(16,1)	
L1D -221>	(-24,16)	(-64,2)	(1,5)	(-245,2)	(78,2)	(17,1)	(0,19)	(-17,1)	(310,2)	(-175,12)	(16,1)	(221,3)	(32,4)	(79,2)	(197,1)	(67,1)	
L1D -220>	(-9,6)	(2,11)	(24,7)	(0,68)	(-1,5)	(-260,8)	(208,4)	(8,3)	(-132,6)	(228,3)	(440,1)	(7,2)	(-175,5)	(-64,24)	(-179,3)	(-258,2)	
L1D -219>	(-9,5)	(-258,3)	(197,1)	(-64,8)	(72,2)	(-126,2)	(232,2)	(211,3)	(255,6)	(2,18)	(7,5)	(0,5)	(-267,3)	(24,3)	(228,18)	(-276,4)	
L1D -218>	(208,3)	(193,3)	(400,4)	(0,42)	(-2,7)	(2,1)	(-191,2)	(209,4)	(51,15)	(21,5)	(1,29)	(395,2)	(217,6)	(-36,2)	(8,2)	(203,8)	
L1D -217>	(0,10)	(80,4)	(210,2)	(16,2)	(-88,3)	(60,2)	(217,7)	(-2,6)	(-184,2)	(-248,38)	(79,2)	(232,3)	(209,3)	(-252,1)	(208,1)	(4,1)	
L1D -216>	(43,22)	(-64,6)	(4,4)	(0,26)	(407,40)	(195,5)	(27,22)	(1,5)	(204,56)	(193,5)	(440,1)	(39,9)	(-256,8)	(384,4)	(191,27)	(203,19)	
L1D -215>	(403,7)	(0,47)	(98,80)	(-64,4)	(-257,15)	(255,14)	(219,6)	(379,24)	(268,5)	(191,4)	(-118,3)	(-192,7)	(-128,4)	(407,6)	(284,1)	(2,8)	
L1D -214>	(0,62)	(-248,2)	(8,11)	(214,2)	(-258,5)	(406,7)	(410,2)	(409,4)	(-64,8)	(182,3)	(-266,2)	(-194,2)	(2,5)	(1,8)	(202,4)	(-128,4)	
L1D -213>	(0,44)	(-249,8)	(-251,2)	(392,4)	(-259,4)	(-64,28)	(15,2)	(64,3)	(-252,25)	(213,11)	(7,2)	(-194,2)	(2,8)	(-253,2)	(85,4)	(43,1)	
L1D -212>	(88,4)	(0,25)	(212,108)	(24,1)	(310,8)	(-238,4)	(-197,2)	(80,21)	(38,4)	(41,2)	(101,3)	(-254,13)	(16,3)	(191,14)	(200,2)	(1,3)	
L1D -211>	(-259,6)	(8,1)	(211,10)	(15,2)	(-249,2)	(-251,3)	(83,14)	(-2,3)	(0,10)	(195,3)	(168,2)	(-64,26)	(1,17)	(-198,6)	(-242,2)	(-175,4)	
L1D -210>	(8,9)	(0,11)	(128,3)	(210,11)	(-2,7)	(82,10)	(-257,24)	(-64,5)	(1,4)	(209,5)	(310,2)	(311,3)	(-183,3)	(-9,6)	(2,3)	(115,1)	
L1D -209>	(-139,4)	(-259,2)	(-256,18)	(79,3)	(203,2)	(115,2)	(-200,4)	(9,4)	(179,2)	(-9,10)	(83,7)	(8,6)	(81,2)	(0,17)	(-64,4)	(-260,2)	
L1D -208>	(80,15)	(208,78)	(-128,13)	(5,3)	(404,3)	(-64,35)	(0,22)	(-12,1)	(-16,12)	(-7,4)	(8,2)	(35,4)	(-4,4)	(-264,27)	(-200,30)	(9,2)	
L1D -207>	(-258,1)	(0,11)	(239,1)	(-247,4)	(-265,0)	(404,1)	(-232,5)	(-64,68)	(207,25)	(-130,0)	(168,1)	(364,4)	(-200,4)	(167,0)	(5,6)	(-7,2)	
L1D -206>	(189,2)	(-128,2)	(0,11)	(206,61)	(-21,5)	(276,12)	(185,4)	(402,2)	(182,2)	(80,3)	(-8,4)	(-266,2)	(404,91)	(398,34)	(197,1)	(-64,11)	
L1D -205>	(0,13)	(-64,11)	(246,4)	(-248,6)	(205,17)	(8,5)	(377,5)	(2,13)	(283,2)	(384,13)	(185,18)	(233,2)	(-24,4)	(213,3)	(402,6)	(404,120)	
L1D -204>	(15,11)	(-249,16)	(43,17)	(-276,5)	(-64,36)	(209,26)	(-4,106)	(1,4)	(60,2)	(303,2)	(14,2)	(0,103)	(208,21)	(204,90)	(27,23)	(207,6)	
L1D -203>	(7,2)	(91,2)	(215,1)	(2,104)	(63,1)	(69,1)	(-64,18)	(55,7)	(0,18)	(-205,2)	(-248,3)	(-273,1)	(-2,2)	(83,1)	(-4,1)	(203,13)	
L1D -202>	(63,5)	(69,5)	(-249,9)	(15,6)	(-1,12)	(-206,38)	(-259,5)	(192,7)	(7,6)	(0,9)	(202,13)	(87,4)	(203,1)	(-128,3)	(213,14)	(-228,6)	
L1D -201>	(-194,5)	(-1,11)	(63,10)	(69,10)	(208,13)	(201,12)	(76,4)	(0,29)	(209,10)	(-264,39)	(-5,8)	(-8,8)	(191,6)	(-24,6)	(197,13)	(8,1)	
L1D -200>	(-1,10)	(-64,30)	(200,23)	(-132,4)	(115,4)	(203,4)	(-18,5)	(-9,17)	(177,1)	(198,4)	(208,24)	(38,7)	(0,17)	(209,38)	(178,4)	(8,26)	
L1D -199>	(-64,58)	(356,6)	(183,4)	(9,8)	(-28,4)	(0,54)	(-21,2)	(199,8)	(195,3)	(198,8)	(-260,13)	(-266,1)	(-248,1)	(12,1)	(23,12)	(-2,4)	
L1D -198>	(201,4)	(1,5)	(-64,38)	(0,13)	(-128,15)	(197,6)	(-9,10)	(139,2)	(409,8)	(267,3)	(-3,7)	(-21,2)	(-8,7)	(-2,2)	(-248,10)	(9,5)	
L1D -197>	(1,47)	(78,15)	(5,14)	(377,15)	(21,10)	(-55,2)	(197,73)	(0,127)	(2,18)	(229,5)	(183,12)	(-69,2)	(185,5)	(199,2)	(300,4)	(-64,9)	
L1D -196>	(0,62)	(-197,28)	(-24,10)	(213,7)	(-206,12)	(-182,4)	(64,4)	(-228,10)	(333,2)	(311,4)	(-213,12)	(209,4)	(67,13)	(196,86)	(20,11)	(49,19)	
L1D -195>	(274,7)	(238,8)	(190,7)	(-64,8)	(176,9)	(195,35)	(-214,26)	(14,9)	(177,1)	(0,33)	(174,5)	(-1,9)	(213,6)	(19,7)	(64,6)	(194,6)	
L1D -194>	(-64,29)	(66,6)	(220,4)	(-184,9)	(-128,17)	(194,25)	(-289,1)	(-60,7)	(209,6)	(-275,20)	(155,6)	(317,3)	(51,6)	(83,17)	(18,13)	(131,5)	
L1D -193>	(-92,4)	(1,98)	(193,37)	(155,14)	(8,64)	(224,3)	(0,41)	(-242,8)	(79,4)	(-93,7)	(-64,20)	(177,16)	(372,3)	(-289,37)	(317,15)	(3,3)	
L1D -192>	(-9,10)	(98,4)	(-175,20)	(154,59)	(192,64)	(-279,12)	(0,45)	(-64,5)	(177,5)	(1,14)	(-280,1)	(155,19)	(-257,5)	(191,3)	(208,3)	(-242,16)	
L1D -191>	(175,7)	(-64,31)	(153,76)	(105,4)	(191,26)	(154,26)	(9,6)	(0,44)	(197,1)	(-289,3)	(6,6)	(-1,10)	(177,9)	(52,6)	(44,11)	(-216,11)	
L1D -190>	(152,69)	(153,15)	(-64,40)	(-18,1)	(7,3)	(-55,2)	(-22,2)	(105,11)	(-232,5)	(9,3)	(197,23)	(-289,33)	(1,6)	(0,12)	(190,3)	(151,6)	
L1D -189>	(152,58)	(-172,3)	(151,88)	(150,6)	(-26,3)	(157,4)	(1,19)	(105,40)	(-64,23)	(0,16)	(-225,4)	(13,5)	(-175,28)	(177,1)	(204,5)	(-1,3)	
L1D -188>	(190,1)	(151,51)	(150,100)	(187,5)	(105,13)	(-205,23)	(1,12)	(172,4)	(-218,8)	(0,37)	(-64,11)	(-32,4)	(2,13)	(188,10)	(44,93)	(5,8)	
L1D -187>	(149,57)	(150,19)	(59,4)	(148,9)	(-25,12)	(-289,1)	(128,4)	(-260,2)	(187,5)	(0,90)	(119,3)	(-285,2)	(-177,3)	(-166,1)	(-269,3)	(-64,17)	
L1D -186>	(213,5)	(-4,4)	(186,26)	(5,10)	(154,1)	(148,58)	(0,16)	(1,9)	(105,8)	(-206,8)	(-64,20)	(197,4)	(2,70)	(185,15)	(149,9)	(7,5)	
L1D -185>	(-72,12)	(-279,10)	(-5,28)	(1,50)	(185,41)	(-34,1)	(-2,5)	(-8,93)	(5,17)	(153,12)	(-64,16)	(-139,5)	(147,14)	(7,33)	(2,40)	(105,54)	
L1D -184>	(8,27)	(183,23)	(-5,55)	(2,102)	(-64,64)	(6,20)	(184,29)	(-216,31)	(-205,16)	(1,26)	(-70,39)	(7,1)	(105,11)	(51,25)	(-224,12)	(5,50)	
L1D -183>	(-26,6)	(2,76)	(-14,6)	(-5,8)	(-289,8)	(183,11)	(-22,6)	(-34,5)	(-30,19)	(146,3)	(0,99)	(5,8)	(7,9)	(8,1)	(-18,2)	(197,9)	
L1D -182>	(-35,1)	(6,10)	(0,6)	(2,10)	(163,74)	(1,15)	(-5,10)	(182,3)	(-9,1)	(180,1)	(5,12)	(7,5)	(-15,8)	(-64,14)	(181,1)	(-19,23)	
L1D -181>	(-5,7)	(-277,1)	(67,0)	(-272,0)	(6,3)	(5,2)	(1,4)	(0,4)	(-64,71)	(175,1)	(181,2)	(2,8)	(-4,0)	(186,0)	(7,4)	(-264,6)	
L1D -180>	(7,23)	(224,37)	(-29,1)	(2,68)	(-5,100)	(0,57)	(65,14)	(180,43)	(6,10)	(110,12)	(136,37)	(5,12)	(-197,58)	(184,8)	(1,44)	(-284,16)	
L1D -179>	(-5,82)	(51,4)	(179,51)	(1,56)	(7,28)	(182,4)	(6,7)	(2,86)	(163,8)	(-4,12)	(5,37)	(175,12)	(176,1)	(174,18)	(168,3)	(-64,35)	
L1D -178>	(2,21)	(-5,14)	(-23,1)	(174,1)	(-289,1)	(163,125)	(-30,4)	(165,1)	(55,1)	(1,9)	(6,3)	(178,10)	(5,2)	(167,1)	(175,4)	(-4,4)	
L1D -177>	(2,54)	(-1,5)	(-5,79)	(1,44)	(5,12)	(-64,34)	(-2,1)	(7,15)	(49,3)	(168,4)	(172,4)	(177,35)	(163,9)	(175,16)	(-4,9)	(171,4)	
L1D -176>	(1,25)	(388,20)	(112,88)	(5,1)	(175,107)	(380,36)	(2,31)	(-5,20)	(180,15)	(174,90)	(176,14)	(177,62)	(170,32)	(184,8)	(300,5)	(55,10)	
L1D -175>	(6,8)	(-1,78)	(-5,90)	(1,57)	(-6,1)	(175,40)	(-64,44)	(172,9)	(5,7)	(176,9)	(-78,3)	(2,75)	(-4,7)	(7,8)	(105,5)	(178,7)	
L1D -174>	(-4,10)	(163,24)	(-5,70)	(175,27)	(174,47)	(-263,3)	(-279,9)	(5,6)	(1,50)	(7,9)	(2,47)	(183,1)	(-2,13)	(105,9)	(178,33)	(-287,6)	
L1D -173>	(2,71)	(0,14)	(-5,35)	(173,23)	(-21,1)	(174,5)	(1,23)	(316,5)	(170,1)	(7,13)	(5,17)	(-64,17)	(-1,1)	(-4,6)	(105,6)	(6,3)	
L1D -172>	(-281,9)	(5,23)	(-4,6)	(161,1)	(-5,48)	(-64,124)	(1,31)	(175,3)	(105,6)	(172,29)	(-39,1)	(6,5)	(2,29)	(7,10)	(173,2)	(0,4)	
L1D -171>	(-64,7)	(59,2)	(171,65)	(-5,68)	(6,40)	(51,6)	(-1,3)	(7,20)	(1,85)	(173,9)	(170,46)	(105,7)	(-40,1)	(-4,15)	(2,69)	(5,34)	
L1D -170>	(170,49)	(-4,9)	(28,2)	(171,3)	(-5,96)	(-29,2)	(6,19)	(-1,11)	(169,34)	(1,101)	(-6,2)	(-64,5)	(165,1)	(2,86)	(5,25)	(7,2)	
L1D -169>	(-5,64)	(-1,2)	(170,5)	(169,31)	(1,84)	(172,1)	(-22,2)	(2,31)	(-30,16)	(171,4)	(-6,3)	(6,3)	(181,1)	(5,14)	(7,4)	(-4,8)	
L1D -168>	(174,1)	(28,2)	(-5,55)	(6,9)	(1,81)	(168,27)	(-64,4)	(170,1)	(2,29)	(9,1)	(169,4)	(-4,3)	(0,1)	(188,2)	(-293,1)	(-1,6)	
L1D -167>	(167,35)	(-9,1)	(-64,13)	(1,75)	(-5,55)	(-4,7)	(176,1)	(-42,1)	(-47,6)	(28,1)	(-18,1)	(-291,1)	(2,16)	(175,1)	(-50,2)	(0,2)	
L1D -166>	(-35,3)	(-5,51)	(-43,1)	(1,85)	(-280,8)	(5,1)	(166,17)	(-279,1)	(2,23)	(-19,0)	(-287,0)	(-2,1)	(-4,4)	(-51,1)	(189,0)	(167,2)	
L1D -165>	(-5,53)	(163,2)	(-9,1)	(1,106)	(187,2)	(-128,1)	(2,37)	(165,32)	(167,2)	(27,1)	(10,12)	(-4,6)	(-45,2)	(72,6)	(-279,2)	(174,1)	
L1D -164>	(-12,4)	(165,2)	(-5,37)	(-215,1)	(163,46)	(1,30)	(2,48)	(164,69)	(-3,1)	(-64,3)	(-231,9)	(-289,3)	(-6,4)	(24,1)	(-4,31)	(-9,0)	
L1D -163>	(152,2)	(189,22)	(-211,7)	(64,18)	(185,33)	(-218,4)	(186,46)	(0,91)	(151,21)	(184,14)	(190,14)	(1,23)	(163,87)	(150,6)	(61,13)	(183,13)	
L1D -162>	(186,22)	(191,15)	(56,13)	(190,22)	(59,15)	(189,29)	(184,10)	(185,16)	(0,15)	(182,6)	(150,13)	(74,4)	(188,15)	(152,2)	(1,66)	(2,5)	
L1D -161>	(40,1)	(175,1)	(-15,2)	(162,10)	(1,104)	(-1,1)	(64,1)	(7,1)	(161,0)	(174,0)	(2,1)	(237,0)	(181,6)	(-128,0)	(163,4)	(21,5)	
L1D -160>	(14,2)	(9,4)	(7,5)	(-64,5)	(-130,6)	(163,101)	(160,8)	(2,6)	(0,4)	(-16,3)	(-10,2)	(128,2)	(1,63)	(175,2)	(21,7)	(10,2)	
L1D -159>	(-64,3)	(-35,3)	(7,2)	(174,1)	(160,4)	(21,8)	(1,79)	(157,1)	(-10,1)	(161,1)	(158,34)	(2,1)	(23,1)	(168,27)	(163,2)	(-3,1)	
L1D -158>	(14,1)	(158,1)	(24,0)	(2,3)	(1,64)	(332,0)	(3,2)	(7,1)	(21,4)	(-1,1)	(174,1)	(-18,1)	(0,54)	(-4,0)	(-2,2)	(-3,4)	
L1D -157>	(-56,75)	(10,0)	(14,0)	(13,0)	(-10,0)	(-24,0)	(28,0)	(8,0)	(1,6)	(1,0)	(1,0)	(1,0)	(1,0)	(1,0)	(1,0)	(1,0)	
L1D -156>	(-128,3)	(16,3)	(7,4)	(10,46)	(-1,7)	(-3,1)	(6,1)	(-10,2)	(28,1)	(64,11)	(14,2)	(-64,5)	(24,1)	(156,1)	(1,87)	(0,3)	
L1D -155>	(1,13)	(5,57)	(155,3)	(243,2)	(-1,3)	(10,75)	(14,2)	(-128,5)	(-7,6)	(142,2)	(27,2)	(7,8)	(0,2)	(128,1)	(157,6)	(135,1)	
L1D -154>	(94,36)	(93,33)	(153,22)	(10,89)	(8,1)	(156,4)	(7,13)	(134,1)	(-7,1)	(-1,13)	(151,2)	(136,1)	(25,1)	(2,4)	(-3,5)	(24,2)	
L1D -153>	(-130,7)	(93,14)	(18,2)	(163,80)	(157,1)	(10,23)	(187,9)	(-139,4)	(0,3)	(7,1)	(155,1)	(136,1)	(150,1)	(24,4)	(-1,2)	(-21,1)	
L1D -152>	(7,14)	(92,40)	(10,123)	(-292,11)	(2,25)	(9,8)	(14,7)	(0,12)	(152,4)	(-35,6)	(134,1)	(93,36)	(24,16)	(-3,29)	(154,15)	(-13,6)	
L1D -151>	(91,11)	(-1,9)	(-309,8)	(-8,19)	(148,11)	(152,3)	(0,12)	(153,26)	(-19,9)	(93,1)	(4,59)	(54,2)	(-132,3)	(-26,2)	(24,35)	(2,40)	
L1D -150>	(149,74)	(64,6)	(4,12)	(0,18)	(-6,27)	(5,14)	(-2,12)	(16,8)	(152,9)	(-8,3)	(1,1)	(7,16)	(3,4)	(13,16)	(-1,10)	(-4,13)	
L1D -149>	(0,76)	(-1,1)	(136,6)	(-5,7)	(128,11)	(6,10)	(7,54)	(8,36)	(-10,39)	(-19,24)	(2,8)	(-50,6)	(-20,11)	(14,13)	(11,19)	(4,7)	
L1D -148>	(-128,46)	(147,19)	(0,16)	(4,4)	(148,21)	(56,66)	(-139,6)	(-10,8)	(169,2)	(-19,11)	(-20,4)	(-15,8)	(7,20)	(-3,2)	(1,19)	(8,1)	
L1D -147>	(64,14)	(146,5)	(145,1)	(-23,13)	(-26,5)	(1,16)	(-64,21)	(-19,54)	(11,22)	(-2,17)	(-128,15)	(7,70)	(8,24)	(-20,30)	(132,46)	(0,39)	
L1D -146>	(-4,1)	(134,1)	(145,101)	(-1,3)	(136,1)	(104,17)	(-8,2)	(-2,1)	(9,3)	(135,2)	(-19,1)	(103,2)	(16,1)	(149,2)	(1,9)	(-3,5)	
L1D -145>	(1,30)	(56,4)	(64,5)	(103,68)	(-27,9)	(0,70)	(8,19)	(7,18)	(4,9)	(-2,12)	(-19,89)	(-13,13)	(-20,61)	(-1,8)	(-18,1)	(-16,44)	
L1D -144>	(-1,8)	(102,48)	(-9,43)	(144,30)	(-64,32)	(-18,1)	(-19,88)	(6,6)	(0,62)	(1,56)	(-207,14)	(143,27)	(104,9)	(-20,87)	(177,5)	(-16,27)	
L1D -143>	(-1,10)	(-16,25)	(-20,95)	(-61,31)	(145,4)	(143,11)	(-19,87)	(1,4)	(0,93)	(144,12)	(24,4)	(-5,13)	(5,7)	(132,11)	(8,59)	(-25,1)	
L1D -142>	(8,9)	(137,8)	(0,85)	(-66,3)	(-64,8)	(-19,14)	(64,8)	(-20,13)	(-14,4)	(6,2)	(100,5)	(-16,6)	(101,1)	(136,32)	(138,6)	(98,5)	
L1D -141>	(128,6)	(-16,14)	(40,1)	(133,2)	(3,4)	(-15,2)	(-19,9)	(0,82)	(139,12)	(8,12)	(100,8)	(-5,2)	(-20,10)	(137,3)	(-27,2)	(83,2)	
L1D -140>	(137,9)	(64,5)	(-16,8)	(4,3)	(-19,10)	(136,3)	(1,6)	(0,99)	(-20,10)	(11,1)	(-10,15)	(100,2)	(89,4)	(140,2)	(154,5)	(8,10)	
L1D -139>	(-19,22)	(-327,50)	(-16,18)	(8,9)	(-15,14)	(137,23)	(-1,127)	(1,35)	(138,14)	(-5,1)	(136,48)	(-10,7)	(172,6)	(135,13)	(139,11)	(-128,31)	
L1D -138>	(-59,3)	(133,10)	(130,6)	(140,68)	(2,55)	(-19,18)	(139,49)	(135,15)	(-327,13)	(0,45)	(137,50)	(134,39)	(129,10)	(-20,3)	(-3,23)	(136,48)	
L1D -137>	(-20,20)	(133,12)	(-22,1)	(137,94)	(134,8)	(2,25)	(-19,62)	(-3,7)	(138,64)	(3,12)	(-2,5)	(140,10)	(139,18)	(-16,22)	(0,14)	(8,3)	
L1D -136>	(44,18)	(136,14)	(-19,8)	(1,12)	(-16,10)	(12,3)	(-20,22)	(134,4)	(16,117)	(128,3)	(144,13)	(-22,1)	(-1,3)	(121,1)	(0,4)	(2,6)	
L1D -135>	(15,5)	(1,3)	(2,87)	(133,21)	(-1,6)	(-19,61)	(0,28)	(-20,67)	(14,5)	(-3,3)	(134,10)	(135,21)	(-16,28)	(-7,8)	(-14,1)	(-8,11)	
L1D -134>	(2,38)	(13,25)	(133,101)	(132,61)	(92,69)	(-1,63)	(-16,31)	(-20,89)	(-3,32)	(8,5)	(111,1)	(14,21)	(-19,70)	(134,33)	(0,26)	(131,27)	
L1D -133>	(1,8)	(91,2)	(132,65)	(133,6)	(130,43)	(0,11)	(-20,4)	(13,1)	(-1,1)	(144,0)	(2,0)	(122,2)	(129,0)	(131,0)	(117,1)	(-19,5)	
L1D -132>	(131,2)	(-22,2)	(-19,42)	(133,10)	(8,20)	(-16,10)	(132,122)	(-1,3)	(0,7)	(145,1)	(2,16)	(-20,28)	(122,1)	(90,5)	(130,17)	(-4,2)	
L1D -131>	(71,2)	(130,11)	(1,18)	(132,4)	(-20,126)	(89,16)	(129,19)	(146,4)	(-27,3)	(4,13)	(2,4)	(-8,2)	(122,3)	(-16,42)	(128,6)	(133,11)	
L1D -130>	(132,25)	(130,23)	(-10,72)	(-128,34)	(-20,87)	(-7,32)	(-16,50)	(-12,47)	(-14,38)	(-63,4)	(-6,21)	(-40,6)	(0,5)	(-17,4)	(146,1)	(-19,19)	
L1D -129>	(135,2)	(0,17)	(80,2)	(134,2)	(129,114)	(144,3)	(21,2)	(127,1)	(132,2)	(126,2)	(97,1)	(-1,7)	(-16,19)	(131,6)	(-11,3)	(72,2)	
L1D -128>	(7,26)	(8,70)	(9,10)	(0,40)	(16,15)	(2,21)	(24,12)	(25,6)	(128,62)	(-172,1)	(-1,10)	(258,49)	(6,9)	(17,35)	(15,25)	(267,45)	
L1D -127>	(127,18)	(132,5)	(5,10)	(83,8)	(131,18)	(4,13)	(2,19)	(128,4)	(134,14)	(125,5)	(0,13)	(117,5)	(119,4)	(-1,1)	(64,2)	(155,2)	
L1D -126>	(126,11)	(111,44)	(102,1)	(125,45)	(84,72)	(119,43)	(124,24)	(-27,109)	(0,5)	(120,14)	(117,21)	(123,26)	(-1,27)	(122,6)	(-8,9)	(1,7)	
L1D -125>	(-8,4)	(1,1)	(122,2)	(8,104)	(2,1)	(66,2)	(117,1)	(121,1)	(124,2)	(-1,4)	(0,3)	(134,1)	(125,2)	(123,3)	(73,1)	(119,1)	
L1D -124>	(1,8)	(134,5)	(80,1)	(2,2)	(-8,31)	(122,4)	(82,15)	(126,4)	(-59,3)	(-4,6)	(124,30)	(8,123)	(0,6)	(-44,1)	(7,1)	(-1,16)	
L1D -123>	(123,88)	(-7,102)	(-1,41)	(1,75)	(64,5)	(124,18)	(-45,4)	(-8,13)	(-72,25)	(4,5)	(121,1)	(125,17)	(2,10)	(-5,10)	(81,48)	(-70,47)	
L1D -122>	(132,66)	(130,114)	(14,13)	(1,23)	(111,94)	(4,84)	(125,17)	(6,55)	(121,10)	(8,14)	(64,52)	(-8,10)	(80,11)	(124,56)	(0,1)	(-1,13)	
L1D -121>	(8,6)	(-8,6)	(64,96)	(79,46)	(0,12)	(120,40)	(122,6)	(134,1)	(118,13)	(133,10)	(119,32)	(121,41)	(123,29)	(-1,21)	(124,19)	(116,4)	
L1D -120>	(0,20)	(-14,22)	(5,1)	(133,2)	(2,8)	(-15,2)	(112,1)	(4,7)	(-16,110)	(-23,3)	(11,2)	(-76,1)	(3,11)	(6,2)	(-24,1)	(1,10)	
L1D -119>	(76,1)	(-8,11)	(1,48)	(64,12)	(4,4)	(118,5)	(8,36)	(120,27)	(0,66)	(-58,4)	(18,5)	(117,34)	(116,13)	(-1,39)	(-4,82)	(-3,9)	
L1D -118>	(109,82)	(18,22)	(2,35)	(116,33)	(113,12)	(119,6)	(130,1)	(117,50)	(134,10)	(114,30)	(-1,48)	(111,22)	(115,19)	(76,17)	(120,2)	(-3,2)	
L1D -117>	(130,18)	(-3,9)	(-1,22)	(35,120)	(116,14)	(117,20)	(134,1)	(85,5)	(0,20)	(118,10)	(8,16)	(75,25)	(115,8)	(113,6)	(114,8)	(-8,6)	
L1D -116>	(-8,84)	(123,3)	(130,11)	(74,48)	(118,85)	(-197,6)	(8,7)	(-10,8)	(115,10)	(114,7)	(-4,4)	(84,3)	(0,11)	(-1,61)	(117,51)	(-3,2)	
L1D -115>	(64,8)	(21,7)	(-1,12)	(116,12)	(55,99)	(-8,3)	(5,6)	(118,29)	(117,14)	(73,20)	(-4,5)	(134,1)	(7,13)	(8,6)	(-16,11)	(115,7)	
L1D -114>	(64,15)	(111,89)	(7,13)	(2,3)	(76,14)	(114,20)	(9,4)	(117,1)	(1,29)	(-66,10)	(44,28)	(-1,10)	(11,4)	(-16,50)	(8,5)	(40,8)	
L1D -113>	(0,2)	(-2,2)	(64,5)	(-9,3)	(-7,1)	(-59,2)	(8,3)	(111,2)	(2,2)	(-8,1)	(84,81)	(42,16)	(118,1)	(-16,1)	(113,3)	(-73,1)	
L1D -112>	(0,6)	(9,5)	(-9,8)	(-1,9)	(64,70)	(-8,7)	(-25,1)	(176,5)	(-168,2)	(145,16)	(-16,2)	(-13,2)	(112,5)	(68,2)	(109,5)	(-4,2)	
L1D -111>	(102,8)	(204,4)	(-24,1)	(-1,56)	(-2,3)	(130,9)	(111,18)	(110,3)	(-5,8)	(64,25)	(-8,46)	(8,20)	(-16,4)	(-6,12)	(103,5)	(0,9)	
L1D -110>	(-16,2)	(-264,10)	(0,14)	(-8,97)	(9,17)	(110,11)	(111,43)	(55,9)	(-248,2)	(-18,6)	(8,11)	(224,6)	(-1,1)	(204,2)	(36,1)	(109,1)	
L1D -109>	(266,113)	(7,0)	(0,0)	(110,0)	(-14,0)	(100,0)	(9,0)	(-18,0)	(1,0)	(1,0)	(1,0)	(1,0)	(1,0)	(1,0)	(1,0)	(1,0)	
L1D -108>	(109,117)	(130,54)	(2,37)	(6,115)	(132,5)	(-8,28)	(16,13)	(-1,6)	(-41,1)	(-48,19)	(107,6)	(0,9)	(-9,5)	(15,5)	(115,8)	(108,11)	
L1D -107>	(130,5)	(-4,1)	(-24,3)	(-85,1)	(5,5)	(2,1)	(-21,2)	(65,91)	(107,2)	(109,55)	(8,9)	(1,2)	(32,1)	(-8,0)	(9,0)	(16,2)	
L1D -106>	(1,81)	(-27,1)	(2,1)	(19,1)	(-1,2)	(28,1)	(12,4)	(-7,0)	(13,43)	(15,43)	(-252,0)	(-9,0)	(54,0)	(0,2)	(105,7)	(-24,0)	
L1D -105>	(108,1)	(-28,1)	(-189,1)	(-1,79)	(139,3)	(4,51)	(7,89)	(-257,2)	(14,1)	(-24,2)	(32,1)	(12,95)	(10,1)	(15,2)	(22,1)	(103,1)	
L1D -104>	(47,13)	(-16,3)	(145,5)	(12,7)	(-14,1)	(102,7)	(132,4)	(125,2)	(-1,12)	(52,64)	(144,14)	(4,2)	(131,3)	(143,6)	(138,2)	(103,22)	
L1D -103>	(102,3)	(-1,47)	(52,5)	(144,3)	(103,9)	(1,61)	(104,2)	(0,52)	(2,1)	(12,95)	(4,59)	(63,18)	(-8,1)	(18,2)	(17,1)	(-16,6)	
L1D -102>	(129,1)	(143,17)	(-8,6)	(8,10)	(0,23)	(145,17)	(-6,41)	(-4,28)	(-2,80)	(64,50)	(6,25)	(-16,19)	(103,12)	(-1,69)	(12,37)	(50,7)	
L1D -101>	(-2,7)	(-16,8)	(0,33)	(101,16)	(-264,18)	(64,24)	(145,28)	(-1,60)	(142,12)	(-32,1)	(102,34)	(-24,6)	(-4,33)	(141,13)	(9,3)	(-56,4)	
L1D -100>	(38,110)	(135,1)	(17,39)	(-13,38)	(142,20)	(141,28)	(-4,91)	(253,7)	(-7,15)	(7,20)	(64,4)	(-104,3)	(16,29)	(102,20)	(-9,8)	(-21,6)	
L1D -99>	(38,12)	(21,3)	(140,2)	(-9,3)	(-4,68)	(-5,2)	(101,17)	(0,2)	(145,4)	(220,2)	(-10,1)	(136,1)	(142,3)	(-8,1)	(99,1)	(98,17)	
L1D -98>	(12,5)	(1,4)	(141,20)	(11,3)	(33,5)	(145,7)	(92,23)	(4,5)	(0,17)	(-32,14)	(-9,17)	(221,23)	(87,5)	(-2,42)	(104,1)	(139,4)	
L1D -97>	(95,47)	(-26,26)	(-35,24)	(54,9)	(-1,81)	(104,1)	(98,3)	(1,24)	(140,16)	(185,3)	(138,4)	(105,7)	(99,11)	(64,28)	(88,19)	(102,6)	
L1D -96>	(199,1)	(-7,2)	(146,3)	(88,4)	(-28,2)	(-130,2)	(222,12)	(97,2)	(0,2)	(100,6)	(18,4)	(17,21)	(1,71)	(96,3)	(221,4)	(64,10)	
L1D -95>	(-29,2)	(4,8)	(64,91)	(139,5)	(150,57)	(97,8)	(0,16)	(91,5)	(147,2)	(141,1)	(125,1)	(-1,3)	(9,2)	(143,2)	(224,5)	(110,1)	
L1D -94>	(64,19)	(137,9)	(51,105)	(1,111)	(90,16)	(154,54)	(92,36)	(93,25)	(83,63)	(79,1)	(52,68)	(-1,25)	(0,9)	(152,45)	(4,32)	(135,21)	
L1D -93>	(2,86)	(6,11)	(51,107)	(146,2)	(144,17)	(27,55)	(64,16)	(52,8)	(222,20)	(92,12)	(9,11)	(1,10)	(-100,3)	(93,59)	(90,42)	(0,74)	
L1D -92>	(223,14)	(27,15)	(51,26)	(150,5)	(50,35)	(64,5)	(133,6)	(136,1)	(151,11)	(131,11)	(130,7)	(132,25)	(91,26)	(146,9)	(93,25)	(90,77)	
L1D -91>	(-126,1)	(-110,3)	(90,4)	(89,3)	(50,2)	(48,3)	(-13,3)	(88,4)	(91,105)	(51,14)	(85,2)	(-12,9)	(94,3)	(64,29)	(2,5)	(134,4)	
L1D -90>	(64,1)	(9,95)	(18,32)	(81,12)	(85,1)	(152,1)	(127,1)	(134,1)	(91,0)	(145,0)	(0,0)	(133,1)	(130,0)	(87,0)	(76,0)	(49,0)	
L1D -89>	(87,4)	(132,4)	(80,98)	(0,4)	(85,2)	(134,2)	(42,7)	(94,5)	(133,10)	(84,25)	(129,1)	(-16,91)	(146,4)	(-24,1)	(201,3)	(9,6)	
L1D -88>	(64,104)	(133,2)	(115,1)	(102,1)	(94,1)	(0,31)	(73,2)	(150,1)	(69,1)	(47,1)	(1,18)	(86,1)	(91,1)	(129,5)	(130,2)	(153,1)	
L1D -87>	(146,1)	(-58,8)	(145,8)	(224,60)	(130,20)	(88,4)	(1,45)	(64,74)	(8,19)	(251,3)	(51,14)	(82,9)	(80,19)	(148,10)	(-14,12)	(52,17)	
L1D -86>	(-18,92)	(94,13)	(89,7)	(64,9)	(-20,3)	(150,1)	(133,3)	(8,4)	(135,2)	(18,2)	(90,3)	(-1,9)	(130,13)	(87,4)	(-16,4)	(100,2)	
L1D -85>	(-1,22)	(-18,117)	(-3,13)	(86,27)	(0,94)	(-16,11)	(64,80)	(127,6)	(128,21)	(44,22)	(133,1)	(43,5)	(17,23)	(94,21)	(81,14)	(225,3)	
L1D -84>	(224,123)	(5,15)	(-3,7)	(-6,1)	(64,31)	(125,26)	(81,18)	(146,39)	(-1,40)	(225,25)	(1,44)	(226,16)	(0,86)	(212,10)	(72,12)	(83,45)	
L1D -83>	(64,18)	(2,9)	(82,51)	(1,15)	(124,15)	(31,1)	(-1,16)	(154,7)	(4,3)	(196,5)	(5,54)	(126,6)	(138,40)	(0,103)	(72,23)	(127,3)	
L1D -82>	(-23,3)	(74,3)	(83,3)	(64,3)	(126,1)	(0,3)	(4,7)	(125,6)	(6,6)	(-1,14)	(94,3)	(134,3)	(80,3)	(25,26)	(2,13)	(8,111)	
L1D -81>	(0,77)	(8,0)	(6,27)	(90,0)	(72,7)	(82,0)	(81,0)	(5,4)	(84,1)	(-27,78)	(86,0)	(-1,0)	(31,0)	(-9,0)	(16,0)	(79,0)	
L1D -80>	(125,8)	(40,2)	(31,6)	(-1,3)	(79,2)	(64,126)	(129,2)	(1,2)	(134,7)	(82,6)	(6,53)	(83,5)	(77,2)	(0,6)	(2,1)	(81,4)	
L1D -79>	(9,102)	(42,81)	(79,5)	(3,15)	(64,75)	(8,12)	(78,9)	(19,2)	(7,26)	(76,3)	(-1,5)	(83,2)	(81,2)	(111,13)	(146,1)	(5,40)	
L1D -78>	(75,2)	(13,4)	(122,1)	(-3,1)	(126,0)	(77,0)	(76,0)	(-1,0)	(78,0)	(4,0)	(1,1)	(153,0)	(-280,0)	(6,1)	(152,1)	(40,119)	
L1D -77>	(84,4)	(-2,8)	(15,23)	(-228,2)	(79,35)	(117,7)	(94,5)	(56,10)	(78,2)	(129,3)	(-1,47)	(118,1)	(40,120)	(1,13)	(64,9)	(13,13)	
L1D -76>	(89,1)	(-5,9)	(154,0)	(1,2)	(38,1)	(11,0)	(-2,82)	(76,0)	(61,0)	(74,0)	(119,0)	(-1,0)	(75,1)	(15,1)	(2,3)	(79,0)	
L1D -75>	(34,1)	(129,1)	(84,1)	(92,0)	(12,48)	(13,0)	(338,0)	(64,0)	(-6,83)	(73,0)	(32,0)	(-4,46)	(0,0)	(37,8)	(10,17)	(118,0)	
L1D -74>	(12,0)	(154,0)	(0,0)	(-40,0)	(-1,0)	(111,1)	(10,0)	(2,1)	(69,0)	(32,1)	(30,101)	(119,0)	(-5,3)	(16,2)	(75,2)	(-4,36)	
L1D -73>	(64,51)	(0,25)	(111,31)	(21,1)	(24,11)	(-8,19)	(192,3)	(116,36)	(-1,53)	(1,44)	(130,23)	(37,23)	(74,12)	(76,5)	(11,78)	(129,80)	
L1D -72>	(64,14)	(264,0)	(250,0)	(28,80)	(-7,22)	(-3,22)	(9,14)	(34,6)	(-8,0)	(117,0)	(-1,0)	(27,0)	(129,0)	(67,0)	(74,0)	(73,0)	
L1D -71>	(71,3)	(64,1)	(-8,35)	(-10,13)	(1,10)	(130,5)	(70,64)	(73,1)	(33,1)	(129,1)	(-7,34)	(118,1)	(-1,1)	(150,0)	(90,0)	(11,0)	
L1D -70>	(1,2)	(121,1)	(95,1)	(64,1)	(129,126)	(0,30)	(-1,16)	(132,3)	(73,1)	(85,3)	(92,0)	(69,1)	(8,2)	(7,0)	(61,1)	(38,0)	
L1D -69>	(18,40)	(109,104)	(67,5)	(43,6)	(73,2)	(94,5)	(27,1)	(64,45)	(130,2)	(70,2)	(60,3)	(126,5)	(61,3)	(134,1)	(30,1)	(71,1)	
L1D -68>	(26,39)	(2,97)	(61,18)	(4,4)	(-257,4)	(130,9)	(-18,10)	(0,125)	(1,9)	(-10,5)	(-13,11)	(-82,1)	(69,15)	(-8,8)	(37,66)	(42,9)	
L1D -67>	(19,5)	(63,1)	(49,10)	(-14,46)	(15,43)	(2,16)	(66,19)	(7,7)	(0,98)	(1,10)	(64,10)	(25,16)	(128,7)	(-15,10)	(122,47)	(37,7)	
L1D -66>	(21,8)	(6,4)	(94,2)	(64,7)	(8,2)	(65,14)	(73,104)	(-34,2)	(24,12)	(-10,3)	(23,1)	(0,9)	(-15,1)	(72,49)	(43,12)	(71,7)	
L1D -65>	(64,9)	(21,1)	(-10,57)	(43,3)	(65,1)	(94,1)	(5,0)	(1,4)	(13,3)	(27,2)	(73,0)	(107,1)	(2,120)	(23,3)	(-69,0)	(6,2)	
L1D -64>	(232,46)	(296,10)	(75,8)	(272,17)	(64,90)	(256,10)	(-64,41)	(0,14)	(67,13)	(73,12)	(224,2)	(1,63)	(74,44)	(72,94)	(68,9)	(76,1)	
L1D -63>	(-8,0)	(-13,4)	(59,1)	(-9,9)	(-85,0)	(-12,8)	(19,1)	(171,0)	(26,7)	(68,0)	(-16,2)	(3,0)	(21,0)	(0,1)	(62,0)	(63,85)	
L1D -62>	(-289,2)	(26,58)	(0,0)	(62,76)	(-12,56)	(1,4)	(-16,9)	(22,0)	(63,40)	(44,0)	(60,0)	(59,1)	(43,3)	(20,3)	(61,1)	(-70,1)	
L1D -61>	(43,5)	(58,94)	(-3,1)	(38,1)	(64,14)	(5,12)	(53,1)	(12,11)	(49,3)	(19,8)	(63,1)	(59,7)	(55,1)	(1,1)	(60,3)	(42,1)	
L1D -60>	(59,76)	(62,103)	(5,12)	(43,21)	(55,13)	(58,63)	(57,52)	(-2,34)	(64,78)	(6,8)	(42,5)	(63,90)	(18,21)	(54,1)	(67,19)	(61,59)	
L1D -59>	(65,53)	(48,23)	(17,44)	(-13,58)	(60,16)	(42,17)	(58,37)	(-1,29)	(-10,17)	(57,1)	(37,20)	(64,36)	(1,10)	(112,84)	(59,12)	(-4,24)	
L1D -58>	(2,20)	(-16,35)	(170,7)	(-20,72)	(53,1)	(16,15)	(47,4)	(42,1)	(-18,13)	(12,8)	(44,6)	(64,4)	(59,5)	(112,1)	(37,1)	(0,19)	
L1D -57>	(47,35)	(46,12)	(43,9)	(15,15)	(64,28)	(57,65)	(-72,74)	(2,6)	(-2,14)	(42,20)	(58,1)	(55,35)	(1,7)	(0,8)	(61,3)	(-73,10)	
L1D -56>	(2,96)	(-73,3)	(44,3)	(64,22)	(388,2)	(1,1)	(112,16)	(7,1)	(54,5)	(46,2)	(47,1)	(14,1)	(43,3)	(51,0)	(56,2)	(57,3)	
L1D -55>	(1,24)	(55,46)	(252,1)	(53,25)	(45,13)	(-4,4)	(32,17)	(-74,36)	(37,53)	(64,35)	(43,61)	(380,6)	(14,14)	(13,70)	(40,24)	(42,23)	
L1D -54>	(31,39)	(10,15)	(43,26)	(4,8)	(57,1)	(12,24)	(60,14)	(39,65)	(1,79)	(64,20)	(55,2)	(-75,28)	(42,13)	(37,20)	(-5,3)	(54,26)	
L1D -53>	(-76,42)	(-6,5)	(-92,1)	(-77,6)	(53,42)	(60,15)	(43,32)	(0,68)	(42,47)	(62,35)	(10,20)	(51,29)	(11,40)	(4,7)	(64,7)	(45,1)	
L1D -52>	(1,10)	(-7,95)	(-1,50)	(54,1)	(64,96)	(41,16)	(53,5)	(9,6)	(43,18)	(42,21)	(10,79)	(62,36)	(51,32)	(50,33)	(5,20)	(12,16)	
L1D -51>	(54,14)	(-8,124)	(64,11)	(39,37)	(-1,28)	(9,19)	(-4,17)	(38,14)	(36,32)	(42,17)	(28,15)	(1,13)	(56,22)	(49,41)	(0,1)	(30,2)	
L1D -50>	(64,25)	(51,88)	(1,66)	(5,42)	(35,62)	(42,34)	(39,13)	(40,9)	(50,67)	(29,13)	(48,28)	(-84,1)	(43,39)	(31,62)	(-9,27)	(27,26)	
L1D -49>	(55,1)	(50,18)	(39,13)	(64,49)	(44,13)	(49,67)	(1,20)	(58,5)	(43,39)	(7,23)	(90,5)	(-73,4)	(2,48)	(6,17)	(-10,113)	(47,17)	
L1D -48>	(112,52)	(2,33)	(51,11)	(4,16)	(-11,3)	(53,67)	(8,13)	(0,14)	(48,39)	(39,1)	(12,15)	(64,14)	(46,7)	(47,11)	(1,5)	(-1,13)	
L1D -47>	(39,5)	(31,1)	(34,13)	(3,19)	(-1,14)	(64,86)	(5,30)	(42,18)	(35,11)	(1,65)	(2,111)	(43,72)	(57,43)	(45,12)	(47,99)	(55,10)	
L1D -46>	(1,103)	(2,18)	(47,18)	(57,1)	(56,33)	(40,67)	(23,8)	(43,20)	(41,24)	(44,27)	(-13,58)	(46,54)	(31,14)	(-2,16)	(-1,29)	(42,14)	
L1D -45>	(43,35)	(1,90)	(34,16)	(26,17)	(55,5)	(3,33)	(-14,20)	(47,6)	(-1,16)	(49,1)	(22,6)	(45,56)	(42,20)	(2,22)	(50,59)	(41,57)	
L1D -44>	(1,15)	(40,7)	(-15,20)	(42,3)	(29,3)	(44,23)	(-19,81)	(-31,12)	(32,1)	(-35,8)	(34,3)	(33,2)	(-21,33)	(-1,6)	(41,9)	(22,3)	
L1D -43>	(9,29)	(40,3)	(42,7)	(60,1)	(1,5)	(43,2)	(7,93)	(18,55)	(30,2)	(6,9)	(37,2)	(-1,2)	(41,3)	(5,3)	(38,2)	(-74,1)	
L1D -42>	(46,35)	(33,16)	(37,25)	(38,38)	(29,25)	(42,27)	(51,19)	(43,70)	(1,1)	(50,29)	(2,85)	(40,115)	(45,49)	(41,113)	(-1,83)	(32,22)	
L1D -41>	(43,51)	(45,19)	(41,29)	(40,88)	(42,26)	(-105,1)	(47,45)	(10,7)	(50,10)	(1,80)	(27,9)	(64,4)	(49,20)	(2,9)	(34,9)	(52,22)	
L1D -40>	(44,22)	(1,39)	(40,13)	(51,5)	(5,15)	(45,15)	(300,4)	(41,9)	(49,11)	(39,94)	(-2,14)	(52,40)	(-1,16)	(-3,1)	(42,5)	(43,70)	
L1D -39>	(1,22)	(-21,1)	(39,15)	(-20,17)	(36,3)	(6,3)	(44,6)	(38,110)	(-1,24)	(43,3)	(29,2)	(42,11)	(41,13)	(-3,4)	(34,9)	(46,4)	
L1D -38>	(2,5)	(56,1)	(0,4)	(38,11)	(41,4)	(1,8)	(6,2)	(34,14)	(10,63)	(-1,8)	(42,5)	(43,1)	(-2,4)	(37,70)	(12,81)	(75,6)	
L1D -37>	(16,20)	(-35,52)	(23,8)	(40,2)	(36,5)	(-4,4)	(1,5)	(-25,9)	(-38,38)	(0,1)	(-42,1)	(44,1)	(-30,11)	(37,5)	(-22,99)	(34,1)	
L1D -36>	(35,7)	(7,9)	(-23,5)	(47,5)	(-1,2)	(-5,30)	(44,2)	(-3,2)	(37,3)	(-6,4)	(11,83)	(38,4)	(42,1)	(26,3)	(45,1)	(36,17)	
L1D -35>	(14,114)	(34,3)	(38,2)	(-2,3)	(48,1)	(-3,82)	(41,7)	(-5,23)	(-1,1)	(21,23)	(9,12)	(35,6)	(52,1)	(79,5)	(28,1)	(72,2)	
L1D -34>	(38,76)	(34,10)	(12,1)	(44,3)	(48,1)	(42,2)	(-9,1)	(18,1)	(0,2)	(53,1)	(11,1)	(-1,2)	(33,1)	(32,2)	(35,1)	(-25,30)	
L1D -33>	(2,54)	(33,92)	(1,29)	(-8,1)	(0,41)	(22,23)	(42,16)	(-9,74)	(43,15)	(35,13)	(32,21)	(10,11)	(41,39)	(-26,21)	(34,12)	(64,15)	
L1D -32>	(10,16)	(4,71)	(0,32)	(-1,55)	(22,25)	(-27,122)	(31,72)	(-128,1)	(11,18)	(30,27)	(-8,12)	(1,28)	(-7,3)	(292,61)	(41,92)	(32,92)	
L1D -31>	(1,25)	(12,86)	(59,22)	(27,19)	(-2,10)	(31,38)	(7,84)	(-70,13)	(0,4)	(30,72)	(-28,30)	(4,22)	(32,52)	(49,1)	(5,27)	(8,13)	
L1D -30>	(-11,1)	(1,8)	(41,3)	(59,1)	(-1,7)	(0,1)	(4,1)	(14,1)	(-10,7)	(-14,24)	(-3,4)	(-12,2)	(3,5)	(30,7)	(8,80)	(-70,1)	
L1D -29>	(29,39)	(1,12)	(-30,14)	(55,3)	(2,16)	(32,65)	(44,0)	(39,3)	(-11,4)	(0,7)	(6,46)	(41,6)	(8,13)	(-1,11)	(5,8)	(4,7)	
L1D -28>	(2,17)	(-1,7)	(-31,31)	(28,37)	(-2,9)	(0,42)	(18,5)	(3,12)	(7,29)	(12,62)	(59,9)	(-70,8)	(5,7)	(41,9)	(-12,1)	(1,89)	
L1D -27>	(29,3)	(1,11)	(28,2)	(5,13)	(-70,2)	(4,15)	(13,3)	(108,127)	(-15,6)	(-1,5)	(-65,1)	(8,5)	(-42,1)	(27,7)	(6,1)	(-10,1)	
L1D -26>	(1,77)	(39,1)	(3,2)	(38,1)	(6,0)	(2,3)	(-12,2)	(13,0)	(29,1)	(22,0)	(5,1)	(23,1)	(67,1)	(26,4)	(25,1)	(27,1)	
L1D -25>	(63,27)	(25,11)	(1,7)	(-162,6)	(43,3)	(26,107)	(-12,118)	(-70,25)	(30,8)	(24,8)	(41,1)	(22,19)	(5,15)	(31,33)	(23,4)	(59,4)	
L1D -24>	(24,56)	(4,11)	(12,72)	(1,22)	(13,77)	(6,4)	(5,8)	(42,1)	(-25,18)	(-1,7)	(-23,4)	(25,6)	(-18,11)	(-19,7)	(0,9)	(41,13)	
L1D -23>	(22,22)	(1,69)	(17,10)	(2,34)	(23,34)	(4,7)	(20,5)	(-1,11)	(24,19)	(0,25)	(5,6)	(26,5)	(-163,2)	(59,8)	(-42,6)	(6,14)	
L1D -22>	(44,1)	(1,7)	(-2,1)	(-3,1)	(-42,1)	(22,1)	(6,2)	(-19,1)	(21,3)	(-13,108)	(-4,1)	(27,2)	(59,4)	(5,2)	(18,3)	(3,1)	
L1D -21>	(1,1)	(65,3)	(20,2)	(3,1)	(16,1)	(4,2)	(21,4)	(22,6)	(12,0)	(13,2)	(-10,72)	(15,9)	(2,22)	(6,5)	(5,1)	(17,0)	
L1D -20>	(13,17)	(59,1)	(20,65)	(-70,1)	(19,1)	(1,7)	(5,6)	(-3,9)	(6,2)	(-42,1)	(17,1)	(21,4)	(2,0)	(-71,0)	(31,0)	(15,29)	
L1D -19>	(0,113)	(1,18)	(-13,41)	(4,51)	(3,10)	(15,9)	(2,21)	(18,17)	(21,4)	(17,37)	(16,6)	(63,21)	(7,1)	(30,3)	(6,5)	(25,29)	
L1D -18>	(11,1)	(18,12)	(2,17)	(3,110)	(-1,15)	(6,6)	(17,13)	(-60,3)	(9,10)	(4,74)	(1,19)	(0,10)	(5,2)	(16,2)	(15,5)	(28,2)	
L1D -17>	(1,7)	(43,2)	(-1,6)	(0,103)	(14,5)	(-7,6)	(2,7)	(18,3)	(28,1)	(15,4)	(3,17)	(17,1)	(13,6)	(4,32)	(11,2)	(6,5)	
L1D -16>	(14,1)	(1,87)	(8,22)	(5,32)	(20,12)	(10,18)	(2,10)	(144,30)	(-5,34)	(4,60)	(-2,12)	(16,52)	(6,19)	(79,73)	(3,35)	(-42,10)	
L1D -15>	(2,16)	(14,13)	(0,23)	(13,46)	(3,16)	(12,50)	(4,110)	(5,65)	(24,24)	(-6,38)	(7,1)	(1,56)	(10,29)	(-42,20)	(11,56)	(6,52)	
L1D -14>	(1,85)	(10,41)	(-10,1)	(24,14)	(14,35)	(9,23)	(-42,28)	(5,35)	(0,39)	(2,22)	(6,45)	(12,57)	(4,126)	(15,13)	(3,21)	(23,39)	
L1D -13>	(4,11)	(2,11)	(76,14)	(0,14)	(5,8)	(-3,72)	(-42,5)	(9,7)	(-1,7)	(-14,1)	(3,7)	(13,4)	(1,6)	(6,5)	(10,6)	(-70,2)	
L1D -12>	(75,1)	(1,5)	(2,4)	(12,1)	(11,3)	(-8,2)	(-32,5)	(9,2)	(10,7)	(-122,1)	(-4,126)	(7,2)	(17,2)	(-42,1)	(4,2)	(6,6)	
L1D -11>	(-60,4)	(-42,17)	(43,4)	(-79,9)	(4,90)	(2,27)	(18,9)	(5,20)	(1,22)	(3,19)	(0,11)	(10,25)	(20,10)	(11,1)	(6,14)	(-40,23)	
L1D -10>	(-122,1)	(6,4)	(37,6)	(4,16)	(12,126)	(8,16)	(11,3)	(-1,2)	(9,13)	(2,21)	(1,17)	(5,2)	(75,3)	(-4,3)	(3,8)	(18,2)	
L1D -9>	(5,65)	(90,30)	(15,0)	(8,2)	(-42,2)	(10,10)	(4,5)	(28,12)	(2,5)	(14,1)	(13,5)	(9,10)	(64,3)	(1,3)	(6,1)	(72,3)	
L1D -8>	(1,21)	(5,68)	(2,118)	(7,25)	(136,1)	(-42,12)	(6,45)	(0,41)	(11,10)	(71,43)	(-4,24)	(4,33)	(9,67)	(-2,6)	(8,91)	(10,42)	
L1D -7>	(7,11)	(5,119)	(8,1)	(1,17)	(-4,4)	(6,11)	(13,5)	(4,6)	(14,6)	(-7,6)	(-8,4)	(9,12)	(-6,11)	(2,18)	(35,16)	(0,5)	
L1D -6>	(0,12)	(1,107)	(8,8)	(5,23)	(-2,12)	(22,13)	(10,17)	(4,13)	(-10,6)	(6,48)	(-1,10)	(2,7)	(-9,9)	(-3,1)	(-11,6)	(-7,9)	
L1D -5>	(-5,3)	(40,1)	(3,1)	(20,3)	(1,87)	(-3,7)	(-14,1)	(6,6)	(5,2)	(-10,1)	(15,7)	(8,2)	(25,3)	(4,2)	(21,4)	(2,3)	
L1D -4>	(1,19)	(7,18)	(3,5)	(-1,17)	(79,122)	(14,9)	(35,4)	(2,1)	(4,7)	(-5,11)	(42,14)	(-3,11)	(-13,7)	(0,11)	(6,7)	(-15,7)	
L1D -3>	(2,110)	(5,23)	(-4,25)	(-15,22)	(-12,25)	(-1,81)	(-13,1)	(-11,21)	(1,46)	(4,13)	(3,30)	(0,114)	(-2,14)	(-5,52)	(-7,19)	(-3,17)	
L1D -2>	(19,23)	(1,58)	(2,70)	(0,15)	(3,25)	(-3,100)	(-2,119)	(-13,18)	(7,115)	(-1,24)	(-16,1)	(-5,11)	(-17,10)	(-8,20)	(-7,6)	(4,14)	
L1D -1>	(-17,1)	(-5,2)	(-1,123)	(-15,4)	(0,11)	(-2,13)	(-11,3)	(-3,7)	(-8,6)	(2,6)	(4,7)	(1,18)	(-7,7)	(7,2)	(3,29)	(12,4)	
L1D 0>	(4,1)	(7,1)	(-9,4)	(11,1)	(197,0)	(-1,0)	(0,70)	(1,7)	(-2,5)	(12,0)	(-81,2)	(17,0)	(-181,0)	(2,5)	(-17,0)	(-7,2)	
L1D 1>	(1,101)	(-8,1)	(-5,8)	(6,2)	(-12,1)	(-6,2)	(4,1)	(3,5)	(-1,3)	(-4,1)	(0,8)	(15,1)	(-45,1)	(2,2)	(-3,2)	(-29,1)	
L1D 2>	(-176,3)	(-4,27)	(0,70)	(26,1)	(-1,21)	(1,33)	(8,20)	(6,20)	(54,18)	(10,7)	(-6,13)	(-9,37)	(-8,11)	(5,12)	(2,9)	(-2,88)	
L1D 3>	(-1,25)	(-3,23)	(0,16)	(3,12)	(6,10)	(16,18)	(5,36)	(18,1)	(-6,10)	(4,27)	(8,13)	(1,119)	(-11,7)	(-2,16)	(-9,10)	(12,16)	
L1D 4>	(-1,45)	(22,1)	(3,51)	(-2,33)	(1,47)	(-10,29)	(4,23)	(0,15)	(-5,18)	(11,21)	(2,66)	(-19,70)	(8,16)	(-7,22)	(-4,39)	(-3,25)	
L1D 5>	(-1,2)	(0,18)	(3,3)	(-4,8)	(18,10)	(16,1)	(-42,1)	(7,99)	(246,2)	(1,4)	(2,5)	(5,28)	(-5,4)	(-2,19)	(-8,1)	(-7,3)	
L1D 6>	(-1,51)	(-3,29)	(-12,69)	(2,97)	(-6,59)	(-4,42)	(1,66)	(-9,28)	(12,1)	(-13,37)	(6,58)	(-14,11)	(-7,22)	(0,22)	(17,19)	(-8,51)	
L1D 7>	(2,18)	(0,89)	(5,19)	(-8,1)	(-2,9)	(135,1)	(11,24)	(-4,3)	(-5,1)	(28,1)	(134,1)	(-19,1)	(-7,30)	(-160,1)	(-6,6)	(1,7)	
L1D 8>	(-2,19)	(19,1)	(-1,42)	(-6,12)	(-8,77)	(-5,6)	(-11,18)	(7,15)	(-15,3)	(1,23)	(-4,27)	(-3,26)	(8,50)	(-10,15)	(-7,15)	(0,10)	
L1D 9>	(-8,59)	(38,88)	(1,47)	(0,29)	(-1,18)	(63,47)	(-4,93)	(-9,62)	(-5,10)	(72,119)	(-2,64)	(3,17)	(-6,34)	(-31,1)	(-7,50)	(-3,42)	
L1D 10>	(-1,6)	(6,2)	(-42,4)	(-8,19)	(-3,23)	(-6,14)	(-14,1)	(27,96)	(-41,4)	(-9,11)	(-2,11)	(-7,3)	(80,5)	(5,4)	(7,4)	(-4,11)	
L1D 11>	(-8,4)	(1,55)	(-11,7)	(-1,26)	(41,4)	(-3,10)	(-4,27)	(3,4)	(63,6)	(-90,46)	(-2,6)	(-16,9)	(-12,119)	(0,65)	(9,1)	(-9,9)	
L1D 12>	(-16,8)	(-5,3)	(-10,2)	(0,6)	(-2,9)	(-7,5)	(-6,1)	(63,49)	(-1,23)	(-12,66)	(-9,9)	(-4,1)	(-11,4)	(19,1)	(-42,2)	(-8,5)	
L1D 13>	(-19,5)	(-8,12)	(27,87)	(-5,1)	(-11,9)	(46,2)	(-12,13)	(1,2)	(-9,8)	(-14,2)	(-10,2)	(-2,28)	(-3,7)	(-1,21)	(-4,5)	(-6,35)	
L1D 14>	(-13,5)	(-12,6)	(-2,7)	(-1,7)	(-11,4)	(-10,78)	(-6,4)	(-19,1)	(7,3)	(-42,4)	(-7,7)	(27,31)	(0,2)	(-9,4)	(-4,10)	(-14,2)	
L1D 15>	(-22,1)	(-3,46)	(-42,40)	(-1,12)	(-26,62)	(-10,78)	(-11,64)	(-5,19)	(-4,53)	(-18,18)	(32,18)	(-14,20)	(-12,31)	(-6,31)	(1,22)	(-2,24)	
L1D 16>	(27,31)	(-14,17)	(-42,19)	(0,8)	(-13,22)	(-7,32)	(-10,77)	(-2,47)	(-4,46)	(-3,1)	(-12,21)	(-1,81)	(-6,6)	(-20,18)	(112,22)	(-16,9)	
L1D 17>	(0,20)	(-17,64)	(-2,71)	(-13,67)	(10,2)	(-16,5)	(1,20)	(-42,31)	(-21,7)	(-15,21)	(-19,9)	(-14,48)	(-10,8)	(-12,6)	(-28,9)	(-27,11)	
L1D 18>	(-12,110)	(-3,14)	(-51,1)	(-9,21)	(-16,7)	(1,60)	(-13,20)	(-42,17)	(63,6)	(-24,4)	(-6,5)	(-17,10)	(-15,25)	(-1,11)	(-14,15)	(2,2)	
L1D 19>	(44,13)	(-17,68)	(-19,2)	(-5,1)	(-1,7)	(-66,1)	(-42,5)	(-10,2)	(0,1)	(41,1)	(-180,1)	(-15,5)	(-6,0)	(-18,3)	(-4,10)	(-2,5)	
L1D 20>	(-19,17)	(-42,8)	(-1,6)	(-2,7)	(-15,8)	(-3,5)	(-17,7)	(5,1)	(-16,14)	(6,13)	(-10,6)	(-5,7)	(-21,13)	(-6,6)	(-18,7)	(-20,68)	
L1D 21>	(-20,10)	(-42,15)	(6,1)	(-16,26)	(-19,13)	(-2,21)	(8,36)	(-26,110)	(-1,12)	(-43,5)	(-4,4)	(-27,25)	(-61,26)	(-3,9)	(-15,25)	(1,19)	
L1D 22>	(-1,32)	(-23,38)	(-13,74)	(3,24)	(-42,35)	(-5,5)	(-24,124)	(-19,37)	(2,18)	(-28,48)	(-11,18)	(-18,1)	(-12,33)	(-8,43)	(0,20)	(-2,6)	
L1D 23>	(-20,26)	(-3,29)	(-18,49)	(1,119)	(-19,86)	(-1,75)	(3,88)	(-24,47)	(-42,39)	(-4,75)	(-21,93)	(-22,1)	(-25,4)	(-2,88)	(-23,17)	(-13,20)	
L1D 24>	(-42,43)	(-21,32)	(-3,24)	(-1,124)	(-24,27)	(-19,20)	(-12,21)	(-25,40)	(0,63)	(-20,17)	(-49,7)	(-28,37)	(-56,2)	(1,51)	(-11,61)	(-6,14)	
L1D 25>	(56,21)	(16,9)	(-26,22)	(-133,21)	(57,1)	(-40,23)	(-25,3)	(1,7)	(-21,29)	(2,24)	(38,2)	(-1,8)	(-2,76)	(-178,20)	(0,6)	(-42,35)	
L1D 26>	(-25,7)	(37,118)	(-27,10)	(-10,2)	(12,2)	(-1,3)	(-23,4)	(-24,1)	(2,10)	(-2,2)	(3,1)	(-3,12)	(-42,21)	(1,24)	(-22,3)	(0,4)	
L1D 27>	(-34,12)	(-37,1)	(-24,1)	(-42,5)	(-26,1)	(-36,8)	(-16,1)	(14,1)	(-25,0)	(2,1)	(-4,0)	(37,2)	(1,0)	(-43,92)	(-28,1)	(-41,1)	
L1D 28>	(-19,2)	(-41,1)	(-28,10)	(-37,22)	(-21,73)	(-42,6)	(-61,1)	(2,2)	(-29,5)	(-33,1)	(-35,31)	(3,1)	(-12,1)	(-1,6)	(-7,0)	(44,43)	
L1D 29>	(-25,25)	(-40,29)	(10,6)	(-2,7)	(-28,9)	(-26,7)	(-29,7)	(0,15)	(-27,8)	(-5,1)	(6,22)	(1,10)	(-42,96)	(2,10)	(-1,14)	(-30,36)	
L1D 30>	(11,1)	(0,5)	(-42,17)	(-35,75)	(-9,14)	(1,3)	(-40,4)	(-31,3)	(-297,6)	(2,1)	(-33,1)	(-21,3)	(6,1)	(-1,3)	(10,1)	(44,2)	
L1D 31>	(-32,16)	(44,21)	(-40,10)	(-42,52)	(10,10)	(7,1)	(-6,14)	(9,2)	(2,5)	(-8,7)	(1,10)	(-21,78)	(-41,10)	(13,8)	(-1,48)	(0,12)	
L1D 32>	(8,19)	(-29,19)	(10,7)	(2,7)	(-23,0)	(1,11)	(-33,18)	(-26,5)	(-1,30)	(-36,11)	(-27,36)	(-8,6)	(-42,64)	(-32,9)	(-31,20)	(0,10)	
L1D 33>	(-40,21)	(8,12)	(-33,9)	(4,6)	(-1,50)	(-41,10)	(7,1)	(0,7)	(1,4)	(5,4)	(-60,4)	(-34,26)	(-39,3)	(-2,8)	(-25,7)	(-42,76)	
L1D 34>	(-41,9)	(4,5)	(-34,16)	(0,40)	(1,39)	(-25,123)	(-42,71)	(-32,46)	(-35,32)	(2,8)	(-24,17)	(-1,8)	(-10,20)	(-23,1)	(5,7)	(-40,6)	
L1D 35>	(-21,123)	(-8,6)	(-43,1)	(18,1)	(0,3)	(4,2)	(-37,6)	(-31,7)	(-42,27)	(-36,12)	(-4,1)	(-35,3)	(2,4)	(3,1)	(-1,1)	(8,2)	
L1D 36>	(-9,10)	(-1,15)	(-40,15)	(-36,7)	(3,3)	(22,1)	(2,3)	(4,2)	(-11,3)	(-41,15)	(-8,51)	(-37,44)	(-42,100)	(-39,9)	(10,9)	(8,3)	
L1D 37>	(-42,8)	(-43,1)	(-75,26)	(-8,1)	(-59,1)	(-41,3)	(-73,3)	(-63,5)	(-72,69)	(38,12)	(-38,7)	(0,3)	(-62,28)	(-36,3)	(37,1)	(-25,22)	
L1D 38>	(11,119)	(-41,10)	(-39,52)	(-43,6)	(-15,2)	(-30,33)	(-24,8)	(-75,1)	(3,3)	(-42,27)	(1,2)	(-40,5)	(-63,32)	(-79,1)	(37,1)	(-2,6)	
L1D 39>	(-7,3)	(-37,2)	(-56,1)	(-39,1)	(-1,10)	(0,8)	(3,3)	(-41,11)	(13,6)	(-8,13)	(-42,73)	(-43,14)	(-40,124)	(-44,5)	(-14,11)	(-13,4)	
L1D 40>	(-44,10)	(-1,8)	(15,1)	(-46,12)	(-15,26)	(-41,14)	(-8,28)	(38,4)	(-42,48)	(-25,81)	(-43,33)	(-11,7)	(-14,4)	(-40,4)	(-4,2)	(-45,15)	
L1D 41>	(-47,5)	(-3,16)	(0,19)	(-2,11)	(-44,17)	(-15,11)	(-42,88)	(5,2)	(-45,12)	(-14,3)	(-43,15)	(-11,14)	(-1,53)	(-12,6)	(-7,4)	(-8,13)	
L1D 42>	(-35,10)	(-22,29)	(-14,1)	(-8,3)	(-30,11)	(37,78)	(-2,12)	(-43,31)	(-3,2)	(-42,7)	(0,10)	(-9,14)	(-40,3)	(-38,13)	(-1,10)	(-11,2)	
L1D 43>	(-34,9)	(-40,31)	(-35,9)	(-3,10)	(3,8)	(8,11)	(6,9)	(-41,9)	(2,8)	(-44,7)	(-42,71)	(1,7)	(18,7)	(0,1)	(5,8)	(19,3)	
L1D 44>	(4,1)	(-46,4)	(-43,5)	(0,10)	(-42,93)	(-41,17)	(1,9)	(-1,15)	(-63,59)	(-44,41)	(-40,23)	(-65,97)	(-71,8)	(-45,14)	(3,2)	(-4,15)	
L1D 45>	(-5,9)	(-21,2)	(2,5)	(-41,4)	(0,6)	(-60,6)	(-124,1)	(1,12)	(-42,78)	(-43,1)	(-1,6)	(-22,1)	(-2,3)	(-46,11)	(-44,4)	(-40,12)	
L1D 46>	(-6,5)	(2,10)	(-7,25)	(-41,8)	(-47,27)	(-2,7)	(-126,1)	(-42,117)	(-133,2)	(0,5)	(6,13)	(-60,7)	(-43,15)	(-1,17)	(11,2)	(-46,8)	
L1D 47>	(-47,3)	(-1,4)	(2,1)	(-43,5)	(-3,7)	(0,28)	(-4,5)	(-2,7)	(-42,67)	(-5,10)	(-24,3)	(1,12)	(-60,2)	(-11,1)	(-48,17)	(-8,4)	
L1D 48>	(-5,3)	(-60,9)	(-134,1)	(0,5)	(-2,21)	(-10,9)	(-44,19)	(-1,27)	(-6,4)	(-47,7)	(-42,120)	(-43,11)	(8,4)	(-49,34)	(-48,2)	(-45,52)	
L1D 49>	(-3,5)	(-11,2)	(-43,14)	(-8,4)	(-64,1)	(-60,10)	(-10,12)	(-2,11)	(-42,96)	(1,3)	(-49,3)	(-5,2)	(-6,6)	(-50,20)	(0,5)	(-1,7)	
L1D 50>	(-48,8)	(-12,10)	(-42,91)	(-49,1)	(-7,4)	(-51,23)	(-60,5)	(-47,19)	(-44,2)	(6,2)	(-45,10)	(-8,6)	(1,6)	(-1,10)	(-3,5)	(-40,5)	
L1D 51>	(-55,8)	(0,1)	(-44,2)	(42,8)	(-60,7)	(-42,90)	(-8,5)	(-43,4)	(-1,5)	(-52,35)	(-2,2)	(-12,13)	(4,5)	(-24,4)	(-7,7)	(-48,5)	
L1D 52>	(-42,89)	(-12,53)	(-2,1)	(-5,4)	(-51,3)	(-60,8)	(-8,3)	(-24,7)	(-43,9)	(-53,6)	(-9,6)	(-3,2)	(-52,13)	(-22,1)	(41,1)	(-1,11)	
L1D 53>	(-52,16)	(-59,3)	(-60,14)	(-5,76)	(-24,45)	(6,1)	(-13,4)	(-1,11)	(-42,100)	(-53,30)	(-10,10)	(-9,10)	(-58,2)	(-8,2)	(2,6)	(4,2)	
L1D 54>	(-109,115)	(-42,13)	(-63,1)	(-15,1)	(9,1)	(-43,1)	(-12,2)	(-8,6)	(-1,7)	(-52,1)	(113,1)	(-9,3)	(1,1)	(-60,2)	(5,1)	(-2,0)	
L1D 55>	(-1,13)	(-43,7)	(-13,8)	(0,8)	(-54,14)	(-65,10)	(-24,14)	(1,5)	(-11,4)	(-42,107)	(-12,17)	(-21,8)	(-55,9)	(-8,11)	(-2,20)	(-53,1)	
L1D 56>	(-42,91)	(-52,28)	(-1,27)	(1,6)	(-54,3)	(-22,8)	(2,13)	(-13,13)	(-8,12)	(-64,82)	(61,36)	(-2,7)	(56,3)	(-15,1)	(-56,33)	(6,2)	
L1D 57>	(-57,63)	(-58,1)	(-403,15)	(-2,21)	(-1,32)	(-11,5)	(-8,12)	(-24,26)	(-60,13)	(-12,9)	(-42,120)	(60,10)	(55,2)	(-52,19)	(-55,7)	(-82,4)	
L1D 58>	(-60,17)	(-4,115)	(-7,5)	(-42,50)	(-11,6)	(-6,4)	(-134,1)	(-62,2)	(-61,4)	(-3,4)	(-59,9)	(0,17)	(-16,3)	(-15,12)	(-1,8)	(-2,5)	
L1D 59>	(-36,14)	(-44,51)	(-42,112)	(-57,23)	(-39,29)	(-3,1)	(-32,47)	(-51,30)	(-46,27)	(-60,77)	(-40,9)	(-34,67)	(-49,34)	(-29,16)	(-52,71)	(-129,32)	
L1D 60>	(-15,1)	(-60,5)	(-59,5)	(-153,3)	(-403,24)	(-154,10)	(-4,23)	(57,22)	(52,3)	(-61,4)	(-9,13)	(-42,125)	(-11,5)	(-1,20)	(-2,29)	(-3,6)	
L1D 61>	(-1,6)	(-60,26)	(-42,82)	(-18,13)	(-58,9)	(2,11)	(56,5)	(60,8)	(-403,44)	(1,22)	(9,4)	(-56,9)	(-59,14)	(-311,1)	(-66,1)	(0,5)	
L1D 62>	(0,105)	(-42,22)	(-19,2)	(1,28)	(-58,1)	(3,1)	(4,1)	(-59,5)	(-6,2)	(-41,4)	(27,1)	(-1,11)	(-10,16)	(-60,22)	(-132,31)	(14,1)	
L1D 63>	(-75,26)	(-44,72)	(-60,9)	(-76,40)	(-42,5)	(-81,70)	(-79,4)	(4,1)	(-72,125)	(0,4)	(-74,70)	(-58,3)	(-133,5)	(-71,33)	(-37,17)	(-59,2)	
L1D 64>	(10,21)	(-8,73)	(-72,75)	(-52,1)	(-17,22)	(19,13)	(9,26)	(212,31)	(-64,54)	(-6,7)	(-61,17)	(-16,6)	(-176,48)	(11,15)	(-15,19)	(-56,74)	
L1D 65>	(-7,13)	(-60,11)	(-75,38)	(-63,77)	(-42,41)	(-2,1)	(-9,10)	(-78,5)	(0,6)	(-22,2)	(-64,81)	(-8,3)	(-81,3)	(52,4)	(-1,4)	(-57,5)	
L1D 66>	(-7,34)	(-100,5)	(-9,36)	(-64,29)	(64,12)	(-60,33)	(-11,3)	(-1,7)	(-41,1)	(16,9)	(-42,70)	(-23,28)	(-12,2)	(4,9)	(-39,6)	(-62,5)	
L1D 67>	(-66,4)	(2,32)	(-7,6)	(-9,8)	(-60,25)	(121,3)	(1,5)	(-42,103)	(-24,13)	(-64,27)	(-59,3)	(0,13)	(-63,1)	(-3,9)	(8,2)	(-1,2)	
L1D 68>	(53,2)	(-9,12)	(-60,90)	(-42,62)	(-25,10)	(4,3)	(-231,7)	(-1,8)	(-7,5)	(-66,6)	(-22,1)	(7,1)	(-4,13)	(1,27)	(-64,71)	(5,6)	
[...]
L1D 476>	(-200,18)	(-398,1)	(-85,1)	(-5,1)	(1,0)	(1,0)	(1,0)	(1,0)	(1,0)	(1,0)	(1,0)	(1,0)	(1,0)	(1,0)	(1,0)	(1,0)	
L1D 477>	(-160,1)	(-192,1)	(1,0)	(1,0)	(1,0)	(1,0)	(1,0)	(1,0)	(1,0)	(1,0)	(1,0)	(1,0)	(1,0)	(1,0)	(1,0)	(1,0)	
L1D 478>	(1,0)	(1,0)	(1,0)	(1,0)	(1,0)	(1,0)	(1,0)	(1,0)	(1,0)	(1,0)	(1,0)	(1,0)	(1,0)	(1,0)	(1,0)	(1,0)	
L1D 479>	(-218,1)	(-216,1)	(1,0)	(1,0)	(1,0)	(1,0)	(1,0)	(1,0)	(1,0)	(1,0)	(1,0)	(1,0)	(1,0)	(1,0)	(1,0)	(1,0)	
L1D 480>	(-224,3)	(-32,3)	(-344,1)	(-359,1)	(-480,28)	(-409,47)	(-472,2)	(-192,1)	(-155,1)	(1,0)	(1,0)	(1,0)	(1,0)	(1,0)	(1,0)	(1,0)	
L1D 481>	(1,0)	(1,0)	(1,0)	(1,0)	(1,0)	(1,0)	(1,0)	(1,0)	(1,0)	(1,0)	(1,0)	(1,0)	(1,0)	(1,0)	(1,0)	(1,0)	
L1D 482>	(-193,1)	(-117,1)	(-119,2)	(1,0)	(1,0)	(1,0)	(1,0)	(1,0)	(1,0)	(1,0)	(1,0)	(1,0)	(1,0)	(1,0)	(1,0)	(1,0)	
L1D 483>	(1,0)	(1,0)	(1,0)	(1,0)	(1,0)	(1,0)	(1,0)	(1,0)	(1,0)	(1,0)	(1,0)	(1,0)	(1,0)	(1,0)	(1,0)	(1,0)	
L1D 484>	(-192,1)	(1,0)	(1,0)	(1,0)	(1,0)	(1,0)	(1,0)	(1,0)	(1,0)	(1,0)	(1,0)	(1,0)	(1,0)	(1,0)	(1,0)	(1,0)	
L1D 485>	(11,2)	(-218,1)	(-192,2)	(1,0)	(1,0)	(1,0)	(1,0)	(1,0)	(1,0)	(1,0)	(1,0)	(1,0)	(1,0)	(1,0)	(1,0)	(1,0)	
L1D 486>	(1,0)	(1,0)	(1,0)	(1,0)	(1,0)	(1,0)	(1,0)	(1,0)	(1,0)	(1,0)	(1,0)	(1,0)	(1,0)	(1,0)	(1,0)	(1,0)	
L1D 487>	(-192,1)	(1,0)	(1,0)	(1,0)	(1,0)	(1,0)	(1,0)	(1,0)	(1,0)	(1,0)	(1,0)	(1,0)	(1,0)	(1,0)	(1,0)	(1,0)	
L1D 488>	(-16,1)	(-128,1)	(-40,1)	(1,0)	(1,0)	(1,0)	(1,0)	(1,0)	(1,0)	(1,0)	(1,0)	(1,0)	(1,0)	(1,0)	(1,0)	(1,0)	
L1D 489>	(1,0)	(1,0)	(1,0)	(1,0)	(1,0)	(1,0)	(1,0)	(1,0)	(1,0)	(1,0)	(1,0)	(1,0)	(1,0)	(1,0)	(1,0)	(1,0)	
L1D 490>	(-88,1)	(1,0)	(1,0)	(1,0)	(1,0)	(1,0)	(1,0)	(1,0)	(1,0)	(1,0)	(1,0)	(1,0)	(1,0)	(1,0)	(1,0)	(1,0)	
L1D 491>	(1,0)	(1,0)	(1,0)	(1,0)	(1,0)	(1,0)	(1,0)	(1,0)	(1,0)	(1,0)	(1,0)	(1,0)	(1,0)	(1,0)	(1,0)	(1,0)	
L1D 492>	(1,0)	(1,0)	(1,0)	(1,0)	(1,0)	(1,0)	(1,0)	(1,0)	(1,0)	(1,0)	(1,0)	(1,0)	(1,0)	(1,0)	(1,0)	(1,0)	
L1D 493>	(11,1)	(1,0)	(1,0)	(1,0)	(1,0)	(1,0)	(1,0)	(1,0)	(1,0)	(1,0)	(1,0)	(1,0)	(1,0)	(1,0)	(1,0)	(1,0)	
L1D 494>	(-218,1)	(1,0)	(1,0)	(1,0)	(1,0)	(1,0)	(1,0)	(1,0)	(1,0)	(1,0)	(1,0)	(1,0)	(1,0)	(1,0)	(1,0)	(1,0)	
L1D 495>	(1,0)	(1,0)	(1,0)	(1,0)	(1,0)	(1,0)	(1,0)	(1,0)	(1,0)	(1,0)	(1,0)	(1,0)	(1,0)	(1,0)	(1,0)	(1,0)	
L1D 496>	(-148,1)	(1,0)	(1,0)	(1,0)	(1,0)	(1,0)	(1,0)	(1,0)	(1,0)	(1,0)	(1,0)	(1,0)	(1,0)	(1,0)	(1,0)	(1,0)	
L1D 497>	(-2,1)	(1,0)	(1,0)	(1,0)	(1,0)	(1,0)	(1,0)	(1,0)	(1,0)	(1,0)	(1,0)	(1,0)	(1,0)	(1,0)	(1,0)	(1,0)	
L1D 498>	(-182,1)	(1,0)	(1,0)	(1,0)	(1,0)	(1,0)	(1,0)	(1,0)	(1,0)	(1,0)	(1,0)	(1,0)	(1,0)	(1,0)	(1,0)	(1,0)	
L1D 499>	(-405,1)	(11,1)	(1,0)	(1,0)	(1,0)	(1,0)	(1,0)	(1,0)	(1,0)	(1,0)	(1,0)	(1,0)	(1,0)	(1,0)	(1,0)	(1,0)	
L1D 500>	(1,0)	(1,0)	(1,0)	(1,0)	(1,0)	(1,0)	(1,0)	(1,0)	(1,0)	(1,0)	(1,0)	(1,0)	(1,0)	(1,0)	(1,0)	(1,0)	
L1D 501>	(1,0)	(1,0)	(1,0)	(1,0)	(1,0)	(1,0)	(1,0)	(1,0)	(1,0)	(1,0)	(1,0)	(1,0)	(1,0)	(1,0)	(1,0)	(1,0)	
L1D 502>	(1,0)	(1,0)	(1,0)	(1,0)	(1,0)	(1,0)	(1,0)	(1,0)	(1,0)	(1,0)	(1,0)	(1,0)	(1,0)	(1,0)	(1,0)	(1,0)	
L1D 503>	(2,11)	(0,1)	(1,0)	(1,0)	(1,0)	(1,0)	(1,0)	(1,0)	(1,0)	(1,0)	(1,0)	(1,0)	(1,0)	(1,0)	(1,0)	(1,0)	
L1D 504>	(2,8)	(0,8)	(-375,6)	(-479,1)	(1,0)	(1,0)	(1,0)	(1,0)	(1,0)	(1,0)	(1,0)	(1,0)	(1,0)	(1,0)	(1,0)	(1,0)	
L1D 505>	(2,85)	(0,16)	(1,0)	(1,0)	(1,0)	(1,0)	(1,0)	(1,0)	(1,0)	(1,0)	(1,0)	(1,0)	(1,0)	(1,0)	(1,0)	(1,0)	
L1D 506>	(1,0)	(1,0)	(1,0)	(1,0)	(1,0)	(1,0)	(1,0)	(1,0)	(1,0)	(1,0)	(1,0)	(1,0)	(1,0)	(1,0)	(1,0)	(1,0)	
L1D 507>	(1,0)	(1,0)	(1,0)	(1,0)	(1,0)	(1,0)	(1,0)	(1,0)	(1,0)	(1,0)	(1,0)	(1,0)	(1,0)	(1,0)	(1,0)	(1,0)	
L1D 508>	(1,0)	(1,0)	(1,0)	(1,0)	(1,0)	(1,0)	(1,0)	(1,0)	(1,0)	(1,0)	(1,0)	(1,0)	(1,0)	(1,0)	(1,0)	(1,0)	
L1D 509>	(1,0)	(1,0)	(1,0)	(1,0)	(1,0)	(1,0)	(1,0)	(1,0)	(1,0)	(1,0)	(1,0)	(1,0)	(1,0)	(1,0)	(1,0)	(1,0)	
L1D 510>	(1,0)	(1,0)	(1,0)	(1,0)	(1,0)	(1,0)	(1,0)	(1,0)	(1,0)	(1,0)	(1,0)	(1,0)	(1,0)	(1,0)	(1,0)	(1,0)	
L1D 511>	(1,0)	(1,0)	(1,0)	(1,0)	(1,0)	(1,0)	(1,0)	(1,0)	(1,0)	(1,0)	(1,0)	(1,0)	(1,0)	(1,0)	(1,0)	(1,0)	

L2C -64>	(1,205)	(-6,41)	(-1,15)	(-7,135)	(5,2)	(2,17)	(-2,51)	(-3,49)	(-18,2)	(3,11)	(16,1)	(-8,52)	(4,3)	(0,2)	(-5,135)	(-4,62)	
L2C -63>	(1,69)	(10,1)	(3,1)	(2,1)	(1,0)	(1,0)	(1,0)	(1,0)	(1,0)	(1,0)	(1,0)	(1,0)	(1,0)	(1,0)	(1,0)	(1,0)	
L2C -62>	(1,6)	(2,1)	(1,0)	(1,0)	(1,0)	(1,0)	(1,0)	(1,0)	(1,0)	(1,0)	(1,0)	(1,0)	(1,0)	(1,0)	(1,0)	(1,0)	
L2C -61>	(1,6)	(37,1)	(1,0)	(1,0)	(1,0)	(1,0)	(1,0)	(1,0)	(1,0)	(1,0)	(1,0)	(1,0)	(1,0)	(1,0)	(1,0)	(1,0)	
L2C -60>	(1,3)	(48,1)	(1,0)	(1,0)	(1,0)	(1,0)	(1,0)	(1,0)	(1,0)	(1,0)	(1,0)	(1,0)	(1,0)	(1,0)	(1,0)	(1,0)	
L2C -59>	(1,2)	(37,1)	(35,1)	(14,1)	(50,1)	(10,1)	(11,1)	(1,0)	(1,0)	(1,0)	(1,0)	(1,0)	(1,0)	(1,0)	(1,0)	(1,0)	
L2C -58>	(-1,2)	(8,1)	(2,1)	(1,2)	(33,1)	(46,1)	(1,0)	(1,0)	(1,0)	(1,0)	(1,0)	(1,0)	(1,0)	(1,0)	(1,0)	(1,0)	
L2C -57>	(1,4)	(63,8)	(41,1)	(16,1)	(32,1)	(3,1)	(11,1)	(18,1)	(60,1)	(57,2)	(1,0)	(1,0)	(1,0)	(1,0)	(1,0)	(1,0)	
L2C -56>	(6,1)	(-1,1)	(36,1)	(28,1)	(-4,1)	(41,1)	(44,1)	(8,1)	(1,6)	(32,1)	(2,1)	(5,1)	(-2,1)	(38,1)	(57,1)	(59,1)	
L2C -55>	(52,1)	(-3,2)	(1,7)	(49,1)	(-1,1)	(35,2)	(54,1)	(9,2)	(39,1)	(-4,1)	(6,1)	(1,0)	(1,0)	(1,0)	(1,0)	(1,0)	
L2C -54>	(1,7)	(8,2)	(49,1)	(24,1)	(47,1)	(7,6)	(45,1)	(48,2)	(9,1)	(54,3)	(14,2)	(13,2)	(-1,1)	(35,1)	(2,1)	(1,0)	
L2C -53>	(5,7)	(2,12)	(1,8)	(45,6)	(53,4)	(37,1)	(4,1)	(7,133)	(6,39)	(9,3)	(16,1)	(35,77)	(63,62)	(25,16)	(26,1)	(8,6)	
L2C -52>	(61,2)	(47,1)	(28,1)	(49,2)	(1,8)	(13,1)	(37,1)	(7,2)	(19,2)	(44,1)	(20,1)	(3,1)	(55,1)	(-6,1)	(8,1)	(50,1)	
L2C -51>	(59,1)	(1,8)	(-4,1)	(36,1)	(56,1)	(10,1)	(-3,1)	(9,1)	(52,2)	(13,1)	(3,1)	(48,2)	(49,1)	(46,1)	(37,1)	(43,1)	
L2C -50>	(1,6)	(45,1)	(5,1)	(-4,1)	(41,1)	(14,1)	(-10,1)	(29,1)	(43,2)	(27,1)	(4,1)	(8,1)	(46,1)	(36,1)	(19,1)	(38,1)	
L2C -49>	(3,3)	(1,13)	(0,2)	(34,1)	(-1,2)	(27,1)	(5,1)	(30,1)	(31,1)	(13,1)	(52,1)	(6,1)	(46,1)	(20,1)	(8,1)	(41,1)	
L2C -48>	(1,8)	(30,2)	(-1,4)	(6,1)	(48,3)	(14,2)	(-8,3)	(50,1)	(40,1)	(39,2)	(4,2)	(-4,2)	(41,1)	(2,1)	(25,2)	(45,1)	
L2C -47>	(-1,6)	(1,5)	(33,1)	(22,1)	(46,3)	(-3,2)	(51,1)	(7,1)	(27,1)	(26,2)	(48,1)	(12,1)	(-8,2)	(6,1)	(-7,1)	(39,2)	
L2C -46>	(-1,10)	(37,2)	(45,1)	(12,2)	(1,13)	(0,1)	(56,1)	(6,1)	(49,1)	(33,3)	(28,8)	(5,2)	(3,3)	(47,2)	(7,2)	(35,1)	
L2C -45>	(-1,4)	(1,6)	(0,3)	(8,1)	(-9,1)	(11,1)	(4,3)	(15,1)	(63,1)	(56,2)	(-3,2)	(53,1)	(-8,1)	(-2,2)	(41,1)	(49,2)	
L2C -44>	(1,14)	(-1,8)	(41,1)	(27,1)	(-3,1)	(4,1)	(54,1)	(5,2)	(17,1)	(22,1)	(45,2)	(53,1)	(31,2)	(-9,1)	(19,1)	(-4,3)	
L2C -43>	(1,11)	(19,1)	(33,2)	(8,4)	(35,2)	(-1,2)	(43,1)	(23,2)	(32,1)	(50,2)	(-2,1)	(25,2)	(26,1)	(41,1)	(-9,1)	(13,2)	
L2C -42>	(1,9)	(-6,4)	(-1,1)	(20,1)	(-9,4)	(19,2)	(-4,1)	(15,2)	(30,1)	(44,3)	(2,5)	(43,2)	(-2,1)	(39,1)	(4,2)	(-7,2)	
L2C -41>	(-1,1)	(42,1)	(-2,2)	(0,1)	(8,2)	(1,5)	(30,2)	(14,1)	(40,1)	(-14,2)	(2,1)	(46,1)	(43,1)	(12,1)	(-5,1)	(47,2)	
L2C -40>	(-9,1)	(-8,3)	(1,13)	(-7,3)	(46,1)	(-1,10)	(27,3)	(22,2)	(15,1)	(5,2)	(24,1)	(-3,2)	(-5,1)	(2,1)	(8,1)	(39,1)	
L2C -39>	(41,5)	(32,2)	(7,2)	(2,1)	(-1,209)	(29,1)	(30,2)	(-19,1)	(-3,65)	(63,130)	(1,24)	(-4,2)	(-9,2)	(45,5)	(43,1)	(55,1)	
L2C -38>	(10,3)	(1,10)	(13,1)	(39,2)	(-6,1)	(-16,1)	(3,1)	(-8,1)	(63,27)	(12,1)	(9,2)	(-15,1)	(-1,3)	(31,2)	(7,2)	(34,1)	
L2C -37>	(42,1)	(1,9)	(22,3)	(2,5)	(3,5)	(-6,1)	(55,1)	(20,3)	(-9,1)	(18,3)	(5,1)	(19,2)	(38,2)	(51,2)	(-1,6)	(-3,1)	
L2C -36>	(10,2)	(-1,8)	(1,17)	(38,2)	(60,1)	(20,2)	(29,3)	(54,2)	(2,4)	(15,4)	(-2,2)	(31,2)	(-9,2)	(6,1)	(36,2)	(12,2)	
L2C -35>	(53,2)	(1,8)	(2,3)	(8,2)	(38,1)	(15,3)	(-6,1)	(-1,2)	(-16,1)	(-22,1)	(32,2)	(-7,1)	(31,2)	(36,2)	(42,1)	(52,2)	
L2C -34>	(1,31)	(25,20)	(-1,16)	(18,7)	(19,11)	(29,11)	(-2,6)	(28,74)	(21,8)	(24,1)	(22,2)	(20,4)	(50,2)	(10,5)	(-7,2)	(3,4)	
L2C -33>	(-8,1)	(13,2)	(8,2)	(6,1)	(28,5)	(22,1)	(1,17)	(-4,4)	(33,3)	(38,1)	(2,6)	(25,9)	(14,3)	(45,2)	(7,5)	(-12,2)	
L2C -32>	(21,12)	(25,19)	(29,7)	(-1,7)	(-12,2)	(19,1)	(6,3)	(15,2)	(2,7)	(1,13)	(28,34)	(50,1)	(58,1)	(34,1)	(-6,1)	(-16,1)	
L2C -31>	(28,56)	(1,15)	(-3,8)	(2,11)	(33,4)	(3,2)	(32,1)	(14,2)	(-1,57)	(9,2)	(22,1)	(29,17)	(36,1)	(25,8)	(21,5)	(-19,1)	
L2C -30>	(13,2)	(26,2)	(35,1)	(-15,2)	(1,30)	(32,2)	(53,1)	(-4,3)	(29,2)	(-17,1)	(9,1)	(-1,162)	(19,1)	(3,7)	(-5,2)	(25,1)	
L2C -29>	(10,4)	(2,6)	(24,2)	(1,27)	(44,1)	(-1,16)	(31,1)	(-12,2)	(5,8)	(21,3)	(18,2)	(-3,2)	(25,6)	(51,1)	(0,13)	(6,3)	
L2C -28>	(1,21)	(3,5)	(10,7)	(9,5)	(8,6)	(6,5)	(-1,3)	(21,1)	(30,4)	(51,1)	(29,3)	(41,1)	(40,6)	(4,5)	(-8,2)	(-3,5)	
L2C -27>	(1,20)	(27,5)	(5,3)	(25,3)	(40,13)	(12,6)	(28,1)	(16,2)	(26,2)	(-5,4)	(13,5)	(-8,3)	(6,5)	(31,2)	(-4,2)	(42,3)	
L2C -26>	(9,2)	(39,3)	(16,1)	(-16,4)	(1,25)	(35,2)	(13,2)	(28,2)	(3,1)	(-23,1)	(-1,7)	(12,2)	(5,3)	(30,1)	(61,1)	(-4,2)	
L2C -25>	(10,8)	(3,4)	(12,3)	(1,20)	(-18,1)	(8,7)	(40,3)	(-14,1)	(-1,16)	(-11,1)	(-30,3)	(7,2)	(24,5)	(6,1)	(17,2)	(26,2)	
L2C -24>	(7,3)	(1,32)	(-1,7)	(-11,2)	(16,2)	(2,3)	(-9,3)	(17,3)	(23,2)	(8,1)	(9,1)	(0,5)	(46,1)	(-4,1)	(27,1)	(-27,2)	
L2C -23>	(-6,28)	(14,4)	(5,1)	(38,1)	(7,4)	(24,2)	(-5,8)	(1,29)	(18,4)	(4,2)	(13,3)	(3,4)	(-3,4)	(21,4)	(-1,24)	(-12,7)	
L2C -22>	(5,7)	(2,20)	(0,11)	(21,3)	(-5,2)	(3,3)	(29,1)	(23,6)	(63,1)	(17,1)	(8,2)	(19,2)	(1,30)	(11,2)	(-1,13)	(-16,1)	
L2C -21>	(1,47)	(20,4)	(0,93)	(21,30)	(-8,7)	(22,1)	(8,5)	(4,7)	(-3,3)	(5,3)	(10,4)	(9,5)	(2,18)	(36,2)	(-1,11)	(3,8)	
L2C -20>	(4,2)	(2,26)	(1,64)	(-4,8)	(6,2)	(-23,3)	(19,37)	(9,5)	(21,2)	(24,2)	(-5,4)	(33,3)	(-1,12)	(-9,1)	(-18,1)	(27,1)	
L2C -19>	(1,53)	(9,5)	(-1,27)	(-3,7)	(0,128)	(-8,5)	(21,4)	(-27,1)	(2,141)	(-10,4)	(18,19)	(4,3)	(-2,9)	(3,3)	(20,5)	(19,14)	
L2C -18>	(1,82)	(19,3)	(0,5)	(2,14)	(-10,4)	(3,5)	(-1,24)	(16,6)	(-5,7)	(17,76)	(9,6)	(-24,1)	(14,3)	(-7,2)	(37,2)	(5,3)	
L2C -17>	(1,106)	(2,25)	(-1,25)	(24,3)	(-8,4)	(16,9)	(5,10)	(18,3)	(4,3)	(-4,7)	(31,2)	(3,6)	(10,3)	(0,16)	(21,2)	(-2,2)	
L2C -16>	(1,64)	(-3,9)	(9,9)	(8,6)	(17,17)	(23,4)	(-2,9)	(15,8)	(14,5)	(-13,1)	(-15,1)	(3,4)	(2,14)	(-1,57)	(7,6)	(18,7)	
L2C -15>	(1,248)	(-38,9)	(16,12)	(13,1)	(14,16)	(-1,43)	(2,6)	(-4,3)	(-2,13)	(5,6)	(0,11)	(-3,6)	(12,5)	(38,2)	(21,4)	(-5,4)	
L2C -14>	(-39,2)	(-1,63)	(-4,12)	(1,72)	(12,7)	(3,9)	(34,5)	(9,32)	(15,11)	(8,15)	(4,11)	(2,38)	(5,6)	(19,4)	(-2,10)	(6,9)	
L2C -13>	(1,177)	(13,25)	(-1,47)	(-2,28)	(2,24)	(4,10)	(7,11)	(-4,8)	(6,9)	(12,7)	(0,38)	(-8,7)	(19,11)	(8,7)	(-5,1)	(21,3)	
L2C -12>	(1,95)	(6,77)	(11,7)	(3,15)	(8,18)	(9,146)	(-1,72)	(10,35)	(34,13)	(7,18)	(13,19)	(15,7)	(-5,11)	(2,13)	(-3,1)	(-2,16)	
L2C -11>	(1,87)	(5,15)	(-1,186)	(-5,32)	(2,47)	(9,30)	(-19,1)	(7,9)	(3,20)	(4,11)	(10,33)	(8,8)	(6,11)	(12,10)	(-2,48)	(13,4)	
L2C -10>	(6,11)	(-1,167)	(-5,19)	(-2,23)	(1,101)	(8,42)	(3,12)	(11,13)	(4,14)	(18,1)	(9,21)	(2,13)	(-3,5)	(12,4)	(5,22)	(25,5)	
L2C -9>	(1,117)	(-1,84)	(9,128)	(4,1)	(-2,27)	(16,8)	(-3,11)	(33,5)	(2,19)	(7,7)	(3,18)	(11,19)	(-15,4)	(-5,8)	(8,13)	(10,21)	
L2C -8>	(1,242)	(9,30)	(-1,146)	(2,139)	(4,17)	(-5,8)	(27,13)	(-3,15)	(-2,44)	(5,10)	(15,4)	(3,32)	(-4,15)	(-8,1)	(0,5)	(8,209)	
L2C -7>	(1,78)	(-1,154)	(2,6)	(-2,3)	(3,19)	(4,5)	(8,9)	(-9,1)	(-16,1)	(-6,1)	(-4,20)	(9,10)	(10,1)	(-3,5)	(5,6)	(-5,3)	
L2C -6>	(1,113)	(7,7)	(-2,80)	(-1,247)	(17,7)	(8,8)	(-5,10)	(5,31)	(2,76)	(-4,13)	(4,1)	(-10,4)	(-6,28)	(6,4)	(3,30)	(-3,12)	
L2C -5>	(-1,164)	(1,146)	(-2,231)	(-4,47)	(5,1)	(9,45)	(-11,3)	(4,44)	(-3,94)	(-6,27)	(6,90)	(3,22)	(-7,7)	(10,6)	(2,21)	(-5,20)	
L2C -4>	(1,79)	(-4,24)	(-1,181)	(-20,1)	(5,47)	(-8,3)	(49,12)	(3,28)	(0,2)	(2,60)	(9,11)	(-3,97)	(-5,31)	(-7,15)	(-2,90)	(6,31)	
L2C -3>	(19,1)	(1,176)	(-5,8)	(-4,13)	(-1,251)	(4,20)	(6,9)	(2,76)	(-2,123)	(10,5)	(-3,26)	(5,9)	(9,28)	(-6,5)	(0,5)	(8,23)	
L2C -2>	(-6,9)	(-1,210)	(1,206)	(2,21)	(-3,48)	(-2,55)	(-44,1)	(8,12)	(4,12)	(-4,15)	(3,27)	(0,30)	(-11,9)	(30,11)	(-5,12)	(31,4)	
L2C -1>	(0,2)	(-1,173)	(-3,19)	(2,53)	(-2,36)	(-4,11)	(4,5)	(18,3)	(5,2)	(1,7)	(-7,1)	(-19,2)	(-5,4)	(3,7)	(-6,7)	(10,6)	
L2C 0>	(1,5)	(9,0)	(0,190)	(8,0)	(-9,1)	(10,0)	(-13,0)	(2,2)	(-8,7)	(-10,1)	(21,0)	(-1,2)	(19,0)	(29,0)	(13,0)	(-23,0)	
L2C 1>	(1,158)	(10,1)	(2,31)	(-11,1)	(9,3)	(15,1)	(-6,1)	(-5,1)	(3,10)	(-2,8)	(-3,3)	(4,1)	(-1,2)	(0,0)	(5,2)	(-4,3)	
L2C 2>	(3,10)	(-3,2)	(1,188)	(10,1)	(-2,6)	(5,3)	(-5,4)	(2,63)	(-4,3)	(9,4)	(8,2)	(4,3)	(-1,16)	(-14,2)	(-7,1)	(-6,2)	
L2C 3>	(11,1)	(-4,3)	(5,1)	(1,149)	(-5,7)	(2,24)	(3,10)	(-6,2)	(9,7)	(-7,1)	(-10,1)	(33,1)	(4,6)	(-1,6)	(7,0)	(-2,32)	
L2C 4>	(1,217)	(3,38)	(-4,2)	(-1,30)	(5,10)	(-5,27)	(2,38)	(-3,39)	(6,10)	(-2,40)	(-6,9)	(10,8)	(9,18)	(-7,1)	(-8,2)	(4,7)	
L2C 5>	(1,218)	(-18,2)	(2,60)	(-1,58)	(3,19)	(-9,8)	(-7,27)	(-13,6)	(10,8)	(0,28)	(-5,15)	(-4,104)	(4,52)	(6,10)	(-2,54)	(-6,37)	
L2C 6>	(1,113)	(14,5)	(-3,135)	(4,50)	(-1,89)	(-4,79)	(3,41)	(-5,203)	(2,31)	(0,12)	(-13,8)	(5,14)	(-14,14)	(10,1)	(-6,13)	(6,23)	
L2C 7>	(1,132)	(-11,13)	(28,79)	(-2,32)	(2,20)	(7,1)	(-5,63)	(-4,49)	(-13,9)	(6,10)	(-1,77)	(-14,11)	(-3,18)	(8,5)	(10,8)	(24,2)	
L2C 8>	(-8,34)	(2,35)	(-9,17)	(1,64)	(-7,20)	(-19,1)	(3,6)	(-5,89)	(-4,12)	(-1,39)	(7,5)	(-2,19)	(-13,8)	(-11,5)	(0,150)	(-24,3)	
L2C 9>	(1,194)	(-8,42)	(2,18)	(-1,59)	(27,1)	(-13,34)	(40,53)	(13,2)	(-9,5)	(-6,7)	(-5,119)	(-3,37)	(-7,102)	(-4,120)	(0,63)	(-11,22)	
L2C 10>	(-4,132)	(1,77)	(-6,14)	(0,16)	(-1,56)	(-9,2)	(-8,6)	(-12,22)	(-3,12)	(2,20)	(-11,37)	(-16,5)	(-10,25)	(-2,17)	(-5,117)	(5,6)	
L2C 11>	(1,60)	(2,16)	(-22,7)	(4,14)	(-1,23)	(6,7)	(-9,8)	(-5,15)	(0,4)	(-7,6)	(8,1)	(-8,9)	(-16,3)	(-15,9)	(-3,10)	(-10,13)	
L2C 12>	(1,56)	(9,1)	(-1,33)	(15,22)	(2,19)	(5,3)	(-13,6)	(8,7)	(4,10)	(-16,7)	(-12,9)	(-5,13)	(3,9)	(6,9)	(-2,9)	(-15,3)	
L2C 13>	(1,46)	(0,12)	(-5,1)	(-1,93)	(15,3)	(-4,17)	(-12,17)	(-6,7)	(-22,5)	(27,4)	(-13,49)	(3,9)	(-10,8)	(-14,17)	(-11,9)	(4,8)	
L2C 14>	(1,57)	(-1,69)	(2,8)	(34,4)	(-7,8)	(-2,5)	(-18,10)	(-10,5)	(35,6)	(20,1)	(-24,2)	(-5,19)	(4,3)	(13,5)	(-13,3)	(-4,11)	
L2C 15>	(1,50)	(-15,18)	(-16,7)	(-2,10)	(-1,202)	(2,6)	(-11,3)	(-4,9)	(-18,11)	(-6,2)	(4,4)	(-46,1)	(-26,5)	(7,4)	(-8,6)	(-39,2)	
L2C 16>	(2,9)	(1,51)	(-4,1)	(-1,23)	(0,2)	(-47,2)	(-32,3)	(-16,9)	(-2,9)	(-17,9)	(-18,10)	(-15,15)	(7,5)	(24,4)	(-7,6)	(-14,3)	
L2C 17>	(-1,53)	(-18,47)	(2,31)	(-7,3)	(-16,21)	(-5,2)	(-52,2)	(1,29)	(-2,1)	(33,1)	(-34,2)	(-3,70)	(3,1)	(-17,15)	(8,2)	(-27,9)	
L2C 18>	(-15,2)	(-1,182)	(1,16)	(-4,2)	(4,1)	(-16,3)	(-9,2)	(-20,3)	(-17,6)	(-23,4)	(-19,1)	(-5,3)	(5,2)	(-2,4)	(2,3)	(27,2)	
L2C 19>	(2,19)	(-60,1)	(1,21)	(-1,63)	(-9,4)	(-18,8)	(-29,6)	(-19,75)	(9,2)	(4,5)	(23,2)	(-16,5)	(-21,6)	(-11,3)	(-15,4)	(-27,5)	
L2C 20>	(1,13)	(-1,15)	(-24,2)	(-2,9)	(6,3)	(-36,2)	(18,3)	(-18,4)	(2,2)	(3,4)	(-4,5)	(0,3)	(10,2)	(21,1)	(-39,2)	(-13,2)	
L2C 21>	(1,21)	(4,11)	(0,6)	(-21,99)	(-1,20)	(-2,18)	(-18,3)	(-3,9)	(-23,42)	(15,10)	(41,3)	(-27,2)	(-29,12)	(40,3)	(-9,6)	(22,2)	
L2C 22>	(27,4)	(-11,2)	(-14,4)	(1,17)	(-33,2)	(-36,3)	(24,4)	(-19,5)	(-3,1)	(5,4)	(11,5)	(15,16)	(39,4)	(-1,8)	(12,2)	(-23,3)	
L2C 23>	(1,46)	(-1,19)	(-9,3)	(15,3)	(-16,5)	(-13,5)	(-2,3)	(-8,1)	(-3,4)	(-15,2)	(-27,2)	(-5,8)	(0,3)	(-43,2)	(25,3)	(-18,2)	
L2C 24>	(-12,2)	(24,5)	(-1,18)	(1,19)	(-26,2)	(-33,3)	(-4,4)	(-2,1)	(15,19)	(-15,2)	(2,6)	(-30,1)	(-3,12)	(27,1)	(-24,8)	(39,4)	
L2C 25>	(1,38)	(-25,8)	(9,3)	(-14,3)	(15,31)	(-21,1)	(-4,20)	(-15,3)	(-1,35)	(38,4)	(10,7)	(-17,5)	(-2,7)	(2,23)	(11,5)	(-7,11)	
L2C 26>	(1,44)	(3,5)	(-6,1)	(-16,2)	(-24,1)	(37,6)	(-11,2)	(12,1)	(22,7)	(-20,2)	(-3,18)	(10,3)	(13,4)	(-51,1)	(-12,2)	(-33,1)	
L2C 27>	(-27,9)	(-30,3)	(-2,7)	(1,72)	(-4,4)	(-8,2)	(-1,45)	(-5,7)	(8,4)	(7,2)	(-54,1)	(-19,28)	(21,3)	(13,2)	(-14,1)	(-37,2)	
L2C 28>	(-1,7)	(-15,2)	(-34,4)	(-31,2)	(-8,6)	(-21,2)	(0,3)	(1,245)	(5,1)	(-7,5)	(-19,1)	(8,1)	(-3,24)	(19,1)	(-38,1)	(-6,3)	
L2C 29>	(1,20)	(-8,9)	(-3,4)	(-29,8)	(-1,8)	(-32,5)	(-30,28)	(-21,10)	(-2,4)	(-53,2)	(-4,17)	(-11,6)	(-25,2)	(7,2)	(-52,1)	(-10,9)	
L2C 30>	(-3,3)	(1,95)	(13,5)	(14,1)	(2,5)	(-6,2)	(-31,46)	(-21,9)	(-1,144)	(-32,4)	(11,1)	(-23,1)	(-4,3)	(4,1)	(-9,3)	(-5,3)	
L2C 31>	(-30,7)	(31,118)	(-1,123)	(13,2)	(10,1)	(-27,3)	(-50,1)	(5,1)	(-32,2)	(32,12)	(-4,5)	(-36,3)	(-2,5)	(-7,1)	(-37,2)	(18,2)	
L2C 32>	(1,20)	(6,1)	(-1,19)	(3,1)	(-3,4)	(-50,1)	(-31,2)	(-2,1)	(-5,1)	(-20,1)	(-34,1)	(-36,2)	(-23,2)	(-9,1)	(23,1)	(4,2)	
L2C 33>	(1,15)	(11,1)	(-1,22)	(15,2)	(-2,4)	(-40,1)	(13,3)	(-25,5)	(-54,2)	(-26,2)	(-39,18)	(-38,4)	(-29,5)	(-8,5)	(-32,2)	(3,3)	
L2C 34>	(15,11)	(1,9)	(5,3)	(-1,73)	(13,3)	(-27,1)	(2,5)	(-54,1)	(-40,4)	(18,2)	(6,3)	(-5,2)	(-39,75)	(-51,1)	(-18,2)	(-32,1)	
L2C 35>	(1,98)	(-1,142)	(4,1)	(-16,3)	(-23,3)	(6,3)	(8,2)	(-36,1)	(-61,1)	(-4,1)	(-38,1)	(-45,1)	(-2,2)	(-27,2)	(-21,1)	(-17,3)	
L2C 36>	(-16,3)	(1,7)	(7,2)	(10,4)	(8,2)	(-21,3)	(-1,12)	(-33,4)	(-35,3)	(27,4)	(13,38)	(-24,2)	(-37,3)	(-4,1)	(-27,19)	(-34,1)	
L2C 37>	(1,47)	(-38,10)	(15,3)	(-21,2)	(16,2)	(-18,2)	(-2,3)	(5,2)	(2,2)	(-29,3)	(-16,2)	(-28,1)	(22,2)	(-1,15)	(-55,1)	(-48,1)	
L2C 38>	(-5,4)	(-1,23)	(10,2)	(-4,4)	(1,6)	(-46,3)	(9,2)	(-30,1)	(-36,2)	(-2,4)	(2,1)	(-32,1)	(-39,32)	(12,1)	(3,1)	(8,2)	
L2C 39>	(-1,35)	(7,2)	(2,2)	(1,10)	(-11,1)	(-7,1)	(9,1)	(-5,3)	(-39,1)	(-25,4)	(-24,1)	(-22,2)	(14,1)	(17,1)	(10,1)	(-6,1)	
L2C 40>	(-33,1)	(-1,168)	(-34,3)	(-6,2)	(-37,2)	(-9,1)	(-36,2)	(12,1)	(-48,1)	(-39,1)	(1,3)	(15,1)	(-56,1)	(-5,3)	(8,2)	(10,1)	
L2C 41>	(1,6)	(-3,1)	(2,3)	(-1,6)	(-6,2)	(-10,1)	(-54,1)	(-41,1)	(0,3)	(5,3)	(-42,3)	(-24,1)	(-15,1)	(-56,1)	(-40,1)	(-34,2)	
L2C 42>	(1,2)	(-49,1)	(-31,1)	(-16,1)	(10,2)	(-11,2)	(3,2)	(8,1)	(-36,2)	(-46,2)	(-34,1)	(-55,1)	(2,3)	(5,1)	(-2,2)	(-23,2)	
L2C 43>	(-7,2)	(3,2)	(-20,3)	(-14,1)	(1,9)	(-31,1)	(-4,4)	(-26,1)	(-30,2)	(-23,1)	(-6,1)	(10,2)	(-3,2)	(-17,1)	(-59,1)	(-46,1)	
L2C 44>	(11,1)	(-39,3)	(-1,5)	(1,7)	(12,1)	(-2,1)	(-7,1)	(-8,1)	(-33,1)	(-16,2)	(-3,2)	(15,1)	(-44,1)	(6,1)	(-24,1)	(-5,1)	
L2C 45>	(-1,1)	(-45,2)	(1,5)	(-13,2)	(-48,1)	(-5,3)	(-49,1)	(-7,1)	(-37,1)	(-26,2)	(-46,2)	(3,1)	(-21,1)	(-54,1)	(-4,1)	(18,8)	
L2C 46>	(0,2)	(14,5)	(1,9)	(15,30)	(-5,6)	(9,1)	(-1,5)	(-2,3)	(4,4)	(-4,2)	(-10,1)	(-15,2)	(-16,1)	(2,4)	(-22,1)	(-30,1)	
L2C 47>	(1,17)	(-48,1)	(-7,2)	(-1,4)	(4,1)	(-4,1)	(-31,2)	(-12,1)	(-46,1)	(-5,2)	(2,3)	(-34,1)	(3,1)	(-52,1)	(-15,1)	(-3,1)	
L2C 48>	(-34,2)	(15,35)	(14,18)	(-2,5)	(1,12)	(-1,6)	(-3,3)	(-50,1)	(4,1)	(-4,1)	(7,1)	(-43,2)	(-52,2)	(-49,2)	(-32,1)	(-20,1)	
L2C 49>	(1,6)	(-2,1)	(14,2)	(-19,1)	(-46,1)	(-1,88)	(-12,1)	(-35,2)	(-24,1)	(-6,2)	(9,1)	(-14,1)	(-3,1)	(-10,1)	(-32,1)	(-47,1)	
L2C 50>	(-1,1)	(-17,1)	(1,7)	(-31,1)	(6,1)	(-25,3)	(-48,1)	(-23,1)	(-53,2)	(-51,1)	(-41,1)	(-43,1)	(-5,3)	(-15,1)	(-21,1)	(-7,2)	
L2C 51>	(-1,4)	(-26,1)	(-32,1)	(-40,1)	(-11,1)	(-18,1)	(-17,1)	(-6,2)	(-5,2)	(-41,1)	(-48,2)	(-10,1)	(-25,1)	(2,1)	(-21,1)	(1,0)	
L2C 52>	(-53,65)	(4,4)	(1,3)	(-10,1)	(-42,1)	(-56,2)	(-15,47)	(-14,26)	(-9,2)	(-8,1)	(-1,4)	(-33,1)	(-5,2)	(-55,1)	(-16,2)	(-34,3)	
L2C 53>	(-43,1)	(-4,2)	(-42,1)	(-14,1)	(-31,1)	(1,1)	(-11,1)	(-9,2)	(-33,1)	(-30,3)	(-1,1)	(-54,1)	(-53,2)	(0,2)	(-25,1)	(6,1)	
L2C 54>	(1,4)	(-4,1)	(-15,1)	(-2,1)	(-26,1)	(-6,1)	(-1,2)	(-53,2)	(-16,1)	(3,1)	(-13,2)	(-52,1)	(-17,1)	(-22,1)	(-3,1)	(1,0)	
L2C 55>	(-2,1)	(6,1)	(-22,1)	(-37,1)	(-19,1)	(-18,1)	(-43,1)	(-5,1)	(-3,1)	(1,3)	(2,1)	(-21,1)	(-31,1)	(-54,1)	(-23,1)	(-16,1)	
L2C 56>	(-57,8)	(-2,1)	(-35,1)	(-4,1)	(-17,1)	(-22,1)	(1,1)	(-8,1)	(-37,1)	(-53,1)	(-9,1)	(4,1)	(-21,1)	(-50,1)	(-41,1)	(-49,1)	
L2C 57>	(-1,4)	(-21,1)	(-5,3)	(-15,1)	(-52,1)	(1,1)	(1,0)	(1,0)	(1,0)	(1,0)	(1,0)	(1,0)	(1,0)	(1,0)	(1,0)	(1,0)	
L2C 58>	(-26,1)	(-1,2)	(-47,1)	(-8,1)	(-4,1)	(-6,1)	(-5,1)	(1,1)	(1,0)	(1,0)	(1,0)	(1,0)	(1,0)	(1,0)	(1,0)	(1,0)	
L2C 59>	(1,2)	(-1,2)	(-3,1)	(-11,1)	(-18,1)	(-49,1)	(-12,1)	(-50,1)	(-4,1)	(-53,1)	(-21,1)	(-14,1)	(1,0)	(1,0)	(1,0)	(1,0)	
L2C 60>	(-1,1)	(-59,1)	(-6,1)	(-21,1)	(-7,1)	(-20,1)	(-18,1)	(1,0)	(1,0)	(1,0)	(1,0)	(1,0)	(1,0)	(1,0)	(1,0)	(1,0)	
L2C 61>	(-1,17)	(-50,1)	(-21,1)	(-22,1)	(1,0)	(1,0)	(1,0)	(1,0)	(1,0)	(1,0)	(1,0)	(1,0)	(1,0)	(1,0)	(1,0)	(1,0)	
L2C 62>	(-1,137)	(-3,1)	(-9,1)	(-4,1)	(-2,2)	(1,0)	(1,0)	(1,0)	(1,0)	(1,0)	(1,0)	(1,0)	(1,0)	(1,0)	(1,0)	(1,0)	
L2C 63>	(-1,252)	(-3,1)	(-15,4)	(-2,1)	(-4,4)	(-17,0)	(1,0)	(1,0)	(1,0)	(1,0)	(1,0)	(1,0)	(1,0)	(1,0)	(1,0)	(1,0)	

DRAM Statistics
 CHANNEL 0
 RQ ROW_BUFFER_HIT:     138836  ROW_BUFFER_MISS:     140651
 DBUS_CONGESTED:     145785
 WQ ROW_BUFFER_HIT:      19521  ROW_BUFFER_MISS:      32142  FULL:          0

 AVG_CONGESTED_CYCLE: 6
