
*** ChampSim Multicore Out-of-Order Simulator ***

Warmup Instructions: 1000000
Simulation Instructions: 10000000
Number of CPUs: 4
LLC sets: 8192
LLC ways: 16
Off-chip DRAM Size: 4096 MB Channels: 1 Width: 64-bit Data Rate: 3200 MT/s

CPU 0 runs /home/virtualcse/Data-Prefetching/ChampSim/dpc3_traces/631.deepsjeng_s-928B.champsimtrace.xz
CPU 1 runs /home/virtualcse/Data-Prefetching/ChampSim/dpc3_traces/648.exchange2_s-1699B.champsimtrace.xz
CPU 2 runs /home/virtualcse/Data-Prefetching/ChampSim/dpc3_traces/603.bwaves_s-1080B.champsimtrace.xz
CPU 3 runs /home/virtualcse/Data-Prefetching/ChampSim/dpc3_traces/641.leela_s-334B.champsimtrace.xz
Ultra pref. initializing...
Ultra pref. initialized
Ultra pref. initializing...
Ultra pref. initialized
Ultra pref. initializing...
Ultra pref. initialized
Ultra pref. initializing...
Ultra pref. initialized
Ultra pref. initializing...
Ultra pref. initialized
Ultra pref. initializing...
Ultra pref. initialized
Ultra pref. initializing...
Ultra pref. initialized
Ultra pref. initializing...
Ultra pref. initialized

Warmup complete CPU 0 instructions: 1091801 cycles: 418754 (Simulation time: 0 hr 0 min 9 sec) 
Warmup complete CPU 1 instructions: 1368729 cycles: 418754 (Simulation time: 0 hr 0 min 9 sec) 
Warmup complete CPU 2 instructions: 1224241 cycles: 418754 (Simulation time: 0 hr 0 min 9 sec) 
Warmup complete CPU 3 instructions: 1000002 cycles: 418754 (Simulation time: 0 hr 0 min 9 sec) 

Heartbeat CPU 1 instructions: 10000001 cycles: 4087440 heartbeat IPC: 2.44652 cumulative IPC: 2.35269 (Simulation time: 0 hr 0 min 38 sec) 
Heartbeat CPU 2 instructions: 10000001 cycles: 4572240 heartbeat IPC: 2.18711 cumulative IPC: 2.11287 (Simulation time: 0 hr 0 min 42 sec) 
Finished CPU 1 instructions: 10000000 cycles: 4250339 cumulative IPC: 2.35275 (Simulation time: 0 hr 0 min 43 sec) 
Finished CPU 2 instructions: 10000000 cycles: 4726555 cumulative IPC: 2.11571 (Simulation time: 0 hr 0 min 47 sec) 
Heartbeat CPU 0 instructions: 10000003 cycles: 8135794 heartbeat IPC: 1.22914 cumulative IPC: 1.15435 (Simulation time: 0 hr 1 min 12 sec) 
Heartbeat CPU 1 instructions: 20000000 cycles: 8279466 heartbeat IPC: 2.38548 cumulative IPC: 2.37018 (Simulation time: 0 hr 1 min 13 sec) 
Finished CPU 0 instructions: 10000000 cycles: 8688932 cumulative IPC: 1.15089 (Simulation time: 0 hr 1 min 19 sec) 
Heartbeat CPU 2 instructions: 20000003 cycles: 9238046 heartbeat IPC: 2.14325 cumulative IPC: 2.12894 (Simulation time: 0 hr 1 min 20 sec) 
Heartbeat CPU 3 instructions: 10000002 cycles: 10269307 heartbeat IPC: 0.973776 cumulative IPC: 0.913654 (Simulation time: 0 hr 1 min 28 sec) 
Finished CPU 3 instructions: 10000000 cycles: 10944117 cumulative IPC: 0.913733 (Simulation time: 0 hr 1 min 36 sec) 

CPU 0 Branch Prediction Accuracy: 91.5438% MPKI: 9.33216 Average ROB Occupancy at Mispredict: 45.2241

CPU 1 Branch Prediction Accuracy: 97.2565% MPKI: 3.65166 Average ROB Occupancy at Mispredict: 49.9808

CPU 2 Branch Prediction Accuracy: 93.7544% MPKI: 7.29278 Average ROB Occupancy at Mispredict: 83.4274

CPU 3 Branch Prediction Accuracy: 86.1527% MPKI: 16.139 Average ROB Occupancy at Mispredict: 30.6509

ChampSim completed all CPUs

Total Simulation Statistics (not including warmup)

CPU 0 cumulative IPC: 1.14612 instructions: 12543322 cycles: 10944117
L1D TOTAL     ACCESS:    4931039  HIT:    4904474  MISS:      26565
L1D LOAD      ACCESS:    2198797  HIT:    2191813  MISS:       6984
L1D RFO       ACCESS:    1475593  HIT:    1471640  MISS:       3953
L1D PREFETCH  ACCESS:    1256649  HIT:    1241021  MISS:      15628
L1D WRITEBACK ACCESS:          0  HIT:          0  MISS:          0
L1I TOTAL     ACCESS:    1386353  HIT:    1375522  MISS:      10831
L1I LOAD      ACCESS:    1386353  HIT:    1375522  MISS:      10831
L1I RFO       ACCESS:          0  HIT:          0  MISS:          0
L1I PREFETCH  ACCESS:          0  HIT:          0  MISS:          0
L1I WRITEBACK ACCESS:          0  HIT:          0  MISS:          0
L2C TOTAL     ACCESS:     102131  HIT:      86772  MISS:      15359
L2C LOAD      ACCESS:      17700  HIT:      14872  MISS:       2828
L2C RFO       ACCESS:       3924  HIT:       3661  MISS:        263
L2C PREFETCH  ACCESS:      71938  HIT:      59675  MISS:      12263
L2C WRITEBACK ACCESS:       8569  HIT:       8564  MISS:          5

L1D -512>	(-128,1)	(1,16)	(0,107)	(-71,1)	(-1,2)	(-60,1)	(2,2)	(-30,0)	(10,1)	(32,0)	(6,11)	(-6,5)	(50,5)	(25,0)	(3,54)	(4,55)	
L1D -511>	(1,94)	(1,0)	(1,0)	(1,0)	(1,0)	(1,0)	(1,0)	(1,0)	(1,0)	(1,0)	(1,0)	(1,0)	(1,0)	(1,0)	(1,0)	(1,0)	
L1D -510>	(1,0)	(1,0)	(1,0)	(1,0)	(1,0)	(1,0)	(1,0)	(1,0)	(1,0)	(1,0)	(1,0)	(1,0)	(1,0)	(1,0)	(1,0)	(1,0)	
L1D -509>	(1,0)	(1,0)	(1,0)	(1,0)	(1,0)	(1,0)	(1,0)	(1,0)	(1,0)	(1,0)	(1,0)	(1,0)	(1,0)	(1,0)	(1,0)	(1,0)	
L1D -508>	(1,0)	(1,0)	(1,0)	(1,0)	(1,0)	(1,0)	(1,0)	(1,0)	(1,0)	(1,0)	(1,0)	(1,0)	(1,0)	(1,0)	(1,0)	(1,0)	
L1D -507>	(1,0)	(1,0)	(1,0)	(1,0)	(1,0)	(1,0)	(1,0)	(1,0)	(1,0)	(1,0)	(1,0)	(1,0)	(1,0)	(1,0)	(1,0)	(1,0)	
L1D -506>	(1,0)	(1,0)	(1,0)	(1,0)	(1,0)	(1,0)	(1,0)	(1,0)	(1,0)	(1,0)	(1,0)	(1,0)	(1,0)	(1,0)	(1,0)	(1,0)	
L1D -505>	(2,1)	(1,0)	(1,0)	(1,0)	(1,0)	(1,0)	(1,0)	(1,0)	(1,0)	(1,0)	(1,0)	(1,0)	(1,0)	(1,0)	(1,0)	(1,0)	
L1D -504>	(1,0)	(1,0)	(1,0)	(1,0)	(1,0)	(1,0)	(1,0)	(1,0)	(1,0)	(1,0)	(1,0)	(1,0)	(1,0)	(1,0)	(1,0)	(1,0)	
L1D -503>	(1,0)	(1,0)	(1,0)	(1,0)	(1,0)	(1,0)	(1,0)	(1,0)	(1,0)	(1,0)	(1,0)	(1,0)	(1,0)	(1,0)	(1,0)	(1,0)	
L1D -502>	(96,1)	(1,0)	(1,0)	(1,0)	(1,0)	(1,0)	(1,0)	(1,0)	(1,0)	(1,0)	(1,0)	(1,0)	(1,0)	(1,0)	(1,0)	(1,0)	
L1D -501>	(1,0)	(1,0)	(1,0)	(1,0)	(1,0)	(1,0)	(1,0)	(1,0)	(1,0)	(1,0)	(1,0)	(1,0)	(1,0)	(1,0)	(1,0)	(1,0)	
L1D -500>	(1,0)	(1,0)	(1,0)	(1,0)	(1,0)	(1,0)	(1,0)	(1,0)	(1,0)	(1,0)	(1,0)	(1,0)	(1,0)	(1,0)	(1,0)	(1,0)	
L1D -499>	(1,0)	(1,0)	(1,0)	(1,0)	(1,0)	(1,0)	(1,0)	(1,0)	(1,0)	(1,0)	(1,0)	(1,0)	(1,0)	(1,0)	(1,0)	(1,0)	
L1D -498>	(1,0)	(1,0)	(1,0)	(1,0)	(1,0)	(1,0)	(1,0)	(1,0)	(1,0)	(1,0)	(1,0)	(1,0)	(1,0)	(1,0)	(1,0)	(1,0)	
L1D -497>	(1,0)	(1,0)	(1,0)	(1,0)	(1,0)	(1,0)	(1,0)	(1,0)	(1,0)	(1,0)	(1,0)	(1,0)	(1,0)	(1,0)	(1,0)	(1,0)	
L1D -496>	(1,0)	(1,0)	(1,0)	(1,0)	(1,0)	(1,0)	(1,0)	(1,0)	(1,0)	(1,0)	(1,0)	(1,0)	(1,0)	(1,0)	(1,0)	(1,0)	
L1D -495>	(2,1)	(1,1)	(1,0)	(1,0)	(1,0)	(1,0)	(1,0)	(1,0)	(1,0)	(1,0)	(1,0)	(1,0)	(1,0)	(1,0)	(1,0)	(1,0)	
L1D -494>	(1,0)	(1,0)	(1,0)	(1,0)	(1,0)	(1,0)	(1,0)	(1,0)	(1,0)	(1,0)	(1,0)	(1,0)	(1,0)	(1,0)	(1,0)	(1,0)	
L1D -493>	(1,0)	(1,0)	(1,0)	(1,0)	(1,0)	(1,0)	(1,0)	(1,0)	(1,0)	(1,0)	(1,0)	(1,0)	(1,0)	(1,0)	(1,0)	(1,0)	
L1D -492>	(1,0)	(1,0)	(1,0)	(1,0)	(1,0)	(1,0)	(1,0)	(1,0)	(1,0)	(1,0)	(1,0)	(1,0)	(1,0)	(1,0)	(1,0)	(1,0)	
L1D -491>	(1,0)	(1,0)	(1,0)	(1,0)	(1,0)	(1,0)	(1,0)	(1,0)	(1,0)	(1,0)	(1,0)	(1,0)	(1,0)	(1,0)	(1,0)	(1,0)	
L1D -490>	(1,0)	(1,0)	(1,0)	(1,0)	(1,0)	(1,0)	(1,0)	(1,0)	(1,0)	(1,0)	(1,0)	(1,0)	(1,0)	(1,0)	(1,0)	(1,0)	
L1D -489>	(0,1)	(1,0)	(1,0)	(1,0)	(1,0)	(1,0)	(1,0)	(1,0)	(1,0)	(1,0)	(1,0)	(1,0)	(1,0)	(1,0)	(1,0)	(1,0)	
L1D -488>	(0,1)	(1,0)	(1,0)	(1,0)	(1,0)	(1,0)	(1,0)	(1,0)	(1,0)	(1,0)	(1,0)	(1,0)	(1,0)	(1,0)	(1,0)	(1,0)	
L1D -487>	(1,0)	(1,0)	(1,0)	(1,0)	(1,0)	(1,0)	(1,0)	(1,0)	(1,0)	(1,0)	(1,0)	(1,0)	(1,0)	(1,0)	(1,0)	(1,0)	
L1D -486>	(80,1)	(1,0)	(1,0)	(1,0)	(1,0)	(1,0)	(1,0)	(1,0)	(1,0)	(1,0)	(1,0)	(1,0)	(1,0)	(1,0)	(1,0)	(1,0)	
L1D -485>	(1,0)	(1,0)	(1,0)	(1,0)	(1,0)	(1,0)	(1,0)	(1,0)	(1,0)	(1,0)	(1,0)	(1,0)	(1,0)	(1,0)	(1,0)	(1,0)	
L1D -484>	(1,0)	(1,0)	(1,0)	(1,0)	(1,0)	(1,0)	(1,0)	(1,0)	(1,0)	(1,0)	(1,0)	(1,0)	(1,0)	(1,0)	(1,0)	(1,0)	
L1D -483>	(1,0)	(1,0)	(1,0)	(1,0)	(1,0)	(1,0)	(1,0)	(1,0)	(1,0)	(1,0)	(1,0)	(1,0)	(1,0)	(1,0)	(1,0)	(1,0)	
L1D -482>	(1,0)	(1,0)	(1,0)	(1,0)	(1,0)	(1,0)	(1,0)	(1,0)	(1,0)	(1,0)	(1,0)	(1,0)	(1,0)	(1,0)	(1,0)	(1,0)	
L1D -481>	(123,1)	(1,0)	(1,0)	(1,0)	(1,0)	(1,0)	(1,0)	(1,0)	(1,0)	(1,0)	(1,0)	(1,0)	(1,0)	(1,0)	(1,0)	(1,0)	
L1D -480>	(0,1)	(456,15)	(464,4)	(480,3)	(448,6)	(1,0)	(1,0)	(1,0)	(1,0)	(1,0)	(1,0)	(1,0)	(1,0)	(1,0)	(1,0)	(1,0)	
L1D -479>	(270,2)	(1,0)	(1,0)	(1,0)	(1,0)	(1,0)	(1,0)	(1,0)	(1,0)	(1,0)	(1,0)	(1,0)	(1,0)	(1,0)	(1,0)	(1,0)	
L1D -478>	(121,1)	(498,1)	(400,2)	(1,0)	(1,0)	(1,0)	(1,0)	(1,0)	(1,0)	(1,0)	(1,0)	(1,0)	(1,0)	(1,0)	(1,0)	(1,0)	
L1D -477>	(0,1)	(9,1)	(1,0)	(1,0)	(1,0)	(1,0)	(1,0)	(1,0)	(1,0)	(1,0)	(1,0)	(1,0)	(1,0)	(1,0)	(1,0)	(1,0)	
L1D -476>	(1,1)	(340,1)	(183,1)	(1,0)	(1,0)	(1,0)	(1,0)	(1,0)	(1,0)	(1,0)	(1,0)	(1,0)	(1,0)	(1,0)	(1,0)	(1,0)	
L1D -475>	(0,1)	(475,3)	(411,1)	(1,0)	(1,0)	(1,0)	(1,0)	(1,0)	(1,0)	(1,0)	(1,0)	(1,0)	(1,0)	(1,0)	(1,0)	(1,0)	
L1D -474>	(115,3)	(2,1)	(62,1)	(129,1)	(197,1)	(1,0)	(1,0)	(1,0)	(1,0)	(1,0)	(1,0)	(1,0)	(1,0)	(1,0)	(1,0)	(1,0)	
L1D -473>	(2,1)	(256,1)	(1,0)	(1,0)	(1,0)	(1,0)	(1,0)	(1,0)	(1,0)	(1,0)	(1,0)	(1,0)	(1,0)	(1,0)	(1,0)	(1,0)	
L1D -472>	(113,2)	(98,3)	(-8,1)	(63,1)	(128,1)	(1,0)	(1,0)	(1,0)	(1,0)	(1,0)	(1,0)	(1,0)	(1,0)	(1,0)	(1,0)	(1,0)	
L1D -471>	(343,3)	(1,2)	(97,3)	(1,0)	(1,0)	(1,0)	(1,0)	(1,0)	(1,0)	(1,0)	(1,0)	(1,0)	(1,0)	(1,0)	(1,0)	(1,0)	
L1D -470>	(0,2)	(281,1)	(127,1)	(96,9)	(2,1)	(278,1)	(1,0)	(1,0)	(1,0)	(1,0)	(1,0)	(1,0)	(1,0)	(1,0)	(1,0)	(1,0)	
L1D -469>	(27,1)	(26,1)	(278,1)	(1,0)	(1,0)	(1,0)	(1,0)	(1,0)	(1,0)	(1,0)	(1,0)	(1,0)	(1,0)	(1,0)	(1,0)	(1,0)	
L1D -468>	(1,0)	(1,0)	(1,0)	(1,0)	(1,0)	(1,0)	(1,0)	(1,0)	(1,0)	(1,0)	(1,0)	(1,0)	(1,0)	(1,0)	(1,0)	(1,0)	
L1D -467>	(1,5)	(0,1)	(1,0)	(1,0)	(1,0)	(1,0)	(1,0)	(1,0)	(1,0)	(1,0)	(1,0)	(1,0)	(1,0)	(1,0)	(1,0)	(1,0)	
L1D -466>	(3,6)	(330,31)	(254,3)	(1,0)	(1,0)	(1,0)	(1,0)	(1,0)	(1,0)	(1,0)	(1,0)	(1,0)	(1,0)	(1,0)	(1,0)	(1,0)	
L1D -465>	(122,1)	(0,2)	(114,1)	(120,1)	(2,1)	(133,1)	(1,0)	(1,0)	(1,0)	(1,0)	(1,0)	(1,0)	(1,0)	(1,0)	(1,0)	(1,0)	
L1D -464>	(0,5)	(113,4)	(132,1)	(448,4)	(1,0)	(1,0)	(1,0)	(1,0)	(1,0)	(1,0)	(1,0)	(1,0)	(1,0)	(1,0)	(1,0)	(1,0)	
L1D -463>	(131,4)	(1,0)	(1,0)	(1,0)	(1,0)	(1,0)	(1,0)	(1,0)	(1,0)	(1,0)	(1,0)	(1,0)	(1,0)	(1,0)	(1,0)	(1,0)	
L1D -462>	(277,1)	(187,1)	(25,1)	(104,1)	(1,0)	(1,0)	(1,0)	(1,0)	(1,0)	(1,0)	(1,0)	(1,0)	(1,0)	(1,0)	(1,0)	(1,0)	
L1D -461>	(1,0)	(1,0)	(1,0)	(1,0)	(1,0)	(1,0)	(1,0)	(1,0)	(1,0)	(1,0)	(1,0)	(1,0)	(1,0)	(1,0)	(1,0)	(1,0)	
L1D -460>	(0,2)	(78,1)	(-5,1)	(144,1)	(260,1)	(67,2)	(125,1)	(460,1)	(1,0)	(1,0)	(1,0)	(1,0)	(1,0)	(1,0)	(1,0)	(1,0)	
L1D -459>	(249,1)	(459,2)	(124,1)	(66,1)	(1,0)	(1,0)	(1,0)	(1,0)	(1,0)	(1,0)	(1,0)	(1,0)	(1,0)	(1,0)	(1,0)	(1,0)	
L1D -458>	(2,2)	(1,1)	(458,8)	(246,1)	(128,1)	(1,0)	(1,0)	(1,0)	(1,0)	(1,0)	(1,0)	(1,0)	(1,0)	(1,0)	(1,0)	(1,0)	
L1D -457>	(2,2)	(122,3)	(106,1)	(329,5)	(350,3)	(332,2)	(322,1)	(50,1)	(127,1)	(1,0)	(1,0)	(1,0)	(1,0)	(1,0)	(1,0)	(1,0)	
L1D -456>	(8,3)	(113,1)	(0,3)	(219,2)	(16,1)	(260,2)	(448,30)	(-8,2)	(464,1)	(82,1)	(1,0)	(1,0)	(1,0)	(1,0)	(1,0)	(1,0)	
L1D -455>	(104,5)	(274,1)	(2,1)	(4,1)	(1,0)	(1,0)	(1,0)	(1,0)	(1,0)	(1,0)	(1,0)	(1,0)	(1,0)	(1,0)	(1,0)	(1,0)	
L1D -454>	(251,1)	(247,10)	(295,1)	(80,5)	(25,1)	(454,1)	(1,0)	(1,0)	(1,0)	(1,0)	(1,0)	(1,0)	(1,0)	(1,0)	(1,0)	(1,0)	
L1D -453>	(453,10)	(0,1)	(287,1)	(279,1)	(1,0)	(1,0)	(1,0)	(1,0)	(1,0)	(1,0)	(1,0)	(1,0)	(1,0)	(1,0)	(1,0)	(1,0)	
L1D -452>	(270,1)	(1,0)	(1,0)	(1,0)	(1,0)	(1,0)	(1,0)	(1,0)	(1,0)	(1,0)	(1,0)	(1,0)	(1,0)	(1,0)	(1,0)	(1,0)	
L1D -451>	(0,40)	(244,1)	(221,1)	(2,3)	(122,2)	(263,1)	(3,2)	(114,1)	(323,1)	(1,0)	(1,0)	(1,0)	(1,0)	(1,0)	(1,0)	(1,0)	
L1D -450>	(2,1)	(115,10)	(1,2)	(304,1)	(400,1)	(113,3)	(384,1)	(116,1)	(314,7)	(270,1)	(392,1)	(1,0)	(1,0)	(1,0)	(1,0)	(1,0)	
L1D -449>	(114,4)	(312,3)	(0,8)	(122,1)	(2,30)	(1,3)	(50,1)	(1,0)	(1,0)	(1,0)	(1,0)	(1,0)	(1,0)	(1,0)	(1,0)	(1,0)	
L1D -448>	(113,9)	(122,4)	(0,45)	(-3,9)	(121,7)	(384,22)	(416,17)	(112,17)	(432,8)	(448,98)	(480,40)	(464,3)	(119,1)	(424,2)	(456,5)	(-8,2)	
L1D -447>	(319,7)	(447,9)	(-2,3)	(8,2)	(0,20)	(121,2)	(119,1)	(384,3)	(7,1)	(112,1)	(14,2)	(-45,6)	(1,0)	(1,0)	(1,0)	(1,0)	
L1D -446>	(446,1)	(319,2)	(114,9)	(318,1)	(0,3)	(459,1)	(1,0)	(1,0)	(1,0)	(1,0)	(1,0)	(1,0)	(1,0)	(1,0)	(1,0)	(1,0)	
L1D -445>	(113,6)	(319,1)	(445,1)	(112,1)	(114,1)	(1,0)	(1,0)	(1,0)	(1,0)	(1,0)	(1,0)	(1,0)	(1,0)	(1,0)	(1,0)	(1,0)	
L1D -444>	(443,1)	(112,2)	(144,2)	(93,1)	(67,3)	(260,6)	(0,5)	(252,1)	(-8,1)	(115,4)	(444,1)	(72,1)	(111,1)	(-45,1)	(1,0)	(1,0)	
L1D -443>	(226,1)	(0,4)	(-26,3)	(111,3)	(66,1)	(443,1)	(114,1)	(337,1)	(110,1)	(1,0)	(1,0)	(1,0)	(1,0)	(1,0)	(1,0)	(1,0)	
L1D -442>	(212,5)	(113,5)	(442,111)	(215,10)	(421,4)	(220,3)	(108,4)	(110,11)	(420,3)	(441,18)	(439,35)	(443,1)	(105,2)	(0,18)	(437,2)	(440,5)	
L1D -441>	(115,4)	(114,1)	(106,2)	(-8,1)	(212,9)	(104,8)	(273,3)	(439,3)	(-6,2)	(108,1)	(1,0)	(1,0)	(1,0)	(1,0)	(1,0)	(1,0)	
L1D -440>	(-8,33)	(114,2)	(312,2)	(113,3)	(440,6)	(2,1)	(141,1)	(459,1)	(50,1)	(0,2)	(63,2)	(1,0)	(1,0)	(1,0)	(1,0)	(1,0)	
L1D -439>	(113,7)	(0,28)	(232,4)	(-9,2)	(-8,1)	(459,2)	(324,1)	(336,1)	(328,1)	(306,1)	(307,1)	(308,2)	(310,2)	(326,1)	(331,1)	(338,1)	
L1D -438>	(438,31)	(459,12)	(212,2)	(276,2)	(311,4)	(349,1)	(315,1)	(330,1)	(336,1)	(358,1)	(367,1)	(306,1)	(340,1)	(338,1)	(328,1)	(323,1)	
L1D -437>	(0,3)	(1,5)	(2,12)	(438,64)	(212,1)	(311,10)	(458,3)	(434,3)	(295,0)	(419,2)	(146,2)	(-2,2)	(437,1)	(274,0)	(266,0)	(1,0)	
L1D -436>	(0,4)	(146,1)	(1,3)	(438,66)	(434,8)	(295,5)	(212,0)	(-1,0)	(256,0)	(-9,0)	(436,0)	(1,0)	(1,0)	(1,0)	(1,0)	(1,0)	
L1D -435>	(-2,2)	(264,2)	(2,2)	(0,1)	(435,64)	(1,1)	(294,11)	(434,4)	(438,3)	(32,1)	(265,1)	(431,4)	(210,5)	(-4,1)	(261,2)	(93,7)	
L1D -434>	(419,4)	(434,24)	(-2,5)	(1,4)	(0,23)	(106,2)	(298,1)	(2,15)	(295,17)	(438,75)	(435,41)	(212,9)	(136,2)	(-1,1)	(154,2)	(210,1)	
L1D -433>	(16,0)	(0,22)	(1,4)	(-3,22)	(435,82)	(294,4)	(210,6)	(431,3)	(432,0)	(3,0)	(1,0)	(1,0)	(1,0)	(1,0)	(1,0)	(1,0)	
L1D -432>	(0,2)	(238,3)	(432,2)	(1,0)	(1,0)	(1,0)	(1,0)	(1,0)	(1,0)	(1,0)	(1,0)	(1,0)	(1,0)	(1,0)	(1,0)	(1,0)	
L1D -431>	(0,9)	(104,2)	(-2,1)	(1,74)	(431,38)	(294,11)	(210,7)	(435,15)	(92,1)	(50,1)	(8,1)	(1,0)	(1,0)	(1,0)	(1,0)	(1,0)	
L1D -430>	(1,111)	(0,10)	(222,1)	(206,2)	(431,1)	(261,4)	(121,1)	(16,1)	(1,0)	(1,0)	(1,0)	(1,0)	(1,0)	(1,0)	(1,0)	(1,0)	
L1D -429>	(1,124)	(0,12)	(450,1)	(4,1)	(221,1)	(8,1)	(50,1)	(79,2)	(1,0)	(1,0)	(1,0)	(1,0)	(1,0)	(1,0)	(1,0)	(1,0)	
L1D -428>	(0,2)	(1,11)	(456,1)	(8,2)	(1,0)	(1,0)	(1,0)	(1,0)	(1,0)	(1,0)	(1,0)	(1,0)	(1,0)	(1,0)	(1,0)	(1,0)	
L1D -427>	(1,112)	(0,16)	(-17,1)	(203,1)	(2,1)	(427,53)	(290,5)	(423,1)	(8,0)	(1,0)	(1,0)	(1,0)	(1,0)	(1,0)	(1,0)	(1,0)	
L1D -426>	(0,10)	(-8,1)	(427,108)	(423,6)	(-3,3)	(203,1)	(1,3)	(426,3)	(290,3)	(270,1)	(8,1)	(1,0)	(1,0)	(1,0)	(1,0)	(1,0)	
L1D -425>	(1,6)	(0,5)	(427,125)	(423,5)	(203,9)	(290,11)	(2,1)	(8,1)	(1,0)	(1,0)	(1,0)	(1,0)	(1,0)	(1,0)	(1,0)	(1,0)	
L1D -424>	(0,2)	(427,5)	(290,1)	(424,1)	(8,2)	(423,3)	(297,1)	(353,1)	(1,0)	(1,0)	(1,0)	(1,0)	(1,0)	(1,0)	(1,0)	(1,0)	
L1D -423>	(0,20)	(1,100)	(114,0)	(423,37)	(427,16)	(290,12)	(203,2)	(428,0)	(-4,1)	(94,0)	(1,0)	(1,0)	(1,0)	(1,0)	(1,0)	(1,0)	
L1D -422>	(0,1)	(1,81)	(4,1)	(1,0)	(1,0)	(1,0)	(1,0)	(1,0)	(1,0)	(1,0)	(1,0)	(1,0)	(1,0)	(1,0)	(1,0)	(1,0)	
L1D -421>	(1,93)	(0,1)	(79,1)	(335,0)	(16,0)	(1,0)	(1,0)	(1,0)	(1,0)	(1,0)	(1,0)	(1,0)	(1,0)	(1,0)	(1,0)	(1,0)	
L1D -420>	(1,17)	(0,19)	(2,1)	(-3,18)	(420,1)	(79,1)	(3,2)	(1,0)	(1,0)	(1,0)	(1,0)	(1,0)	(1,0)	(1,0)	(1,0)	(1,0)	
L1D -419>	(1,112)	(0,11)	(419,31)	(286,9)	(415,0)	(1,0)	(1,0)	(1,0)	(1,0)	(1,0)	(1,0)	(1,0)	(1,0)	(1,0)	(1,0)	(1,0)	
L1D -418>	(196,1)	(419,101)	(0,3)	(1,2)	(415,1)	(8,0)	(1,0)	(1,0)	(1,0)	(1,0)	(1,0)	(1,0)	(1,0)	(1,0)	(1,0)	(1,0)	
L1D -417>	(118,1)	(-3,1)	(122,1)	(419,122)	(286,16)	(196,10)	(1,4)	(8,0)	(415,8)	(0,3)	(113,1)	(2,0)	(1,0)	(1,0)	(1,0)	(1,0)	
L1D -416>	(0,5)	(400,4)	(419,1)	(260,6)	(209,9)	(416,18)	(-81,1)	(204,3)	(252,4)	(188,1)	(128,2)	(5,3)	(415,9)	(384,3)	(414,1)	(202,2)	
L1D -415>	(0,39)	(1,103)	(419,32)	(286,42)	(415,91)	(122,2)	(120,1)	(268,1)	(115,1)	(2,3)	(196,1)	(287,1)	(-2,1)	(1,0)	(1,0)	(1,0)	
L1D -414>	(1,91)	(0,3)	(-64,1)	(-3,1)	(319,0)	(1,0)	(1,0)	(1,0)	(1,0)	(1,0)	(1,0)	(1,0)	(1,0)	(1,0)	(1,0)	(1,0)	
L1D -413>	(1,98)	(0,3)	(271,0)	(10,0)	(64,0)	(1,0)	(1,0)	(1,0)	(1,0)	(1,0)	(1,0)	(1,0)	(1,0)	(1,0)	(1,0)	(1,0)	
L1D -412>	(1,8)	(0,32)	(-3,18)	(412,1)	(270,5)	(200,1)	(183,1)	(84,1)	(222,1)	(3,1)	(322,1)	(1,0)	(1,0)	(1,0)	(1,0)	(1,0)	
L1D -411>	(0,24)	(1,94)	(407,1)	(-3,2)	(411,10)	(221,1)	(282,4)	(229,0)	(339,0)	(8,0)	(1,0)	(1,0)	(1,0)	(1,0)	(1,0)	(1,0)	
L1D -410>	(411,122)	(1,1)	(0,4)	(407,3)	(440,1)	(189,1)	(-3,1)	(1,0)	(1,0)	(1,0)	(1,0)	(1,0)	(1,0)	(1,0)	(1,0)	(1,0)	
L1D -409>	(261,1)	(262,1)	(0,7)	(411,53)	(-64,47)	(2,1)	(282,8)	(-6,1)	(197,1)	(1,1)	(407,1)	(189,3)	(1,0)	(1,0)	(1,0)	(1,0)	
L1D -408>	(407,4)	(206,5)	(252,1)	(3,1)	(-9,1)	(-2,1)	(113,1)	(411,4)	(440,1)	(104,3)	(384,1)	(0,2)	(282,1)	(1,1)	(189,1)	(1,0)	
L1D -407>	(0,20)	(1,70)	(407,92)	(377,3)	(411,20)	(282,7)	(94,5)	(-3,1)	(171,1)	(349,1)	(8,1)	(499,1)	(28,2)	(412,1)	(91,1)	(4,2)	
L1D -406>	(9,13)	(1,107)	(297,1)	(278,0)	(219,0)	(34,0)	(0,1)	(426,0)	(311,1)	(1,0)	(1,0)	(1,0)	(1,0)	(1,0)	(1,0)	(1,0)	
L1D -405>	(5,1)	(1,69)	(311,1)	(405,0)	(0,2)	(106,0)	(395,11)	(275,0)	(316,0)	(325,0)	(334,0)	(297,0)	(296,0)	(273,0)	(305,0)	(304,0)	
L1D -404>	(0,1)	(-64,1)	(1,13)	(16,2)	(9,80)	(313,1)	(1,0)	(1,0)	(1,0)	(1,0)	(1,0)	(1,0)	(1,0)	(1,0)	(1,0)	(1,0)	
L1D -403>	(93,36)	(0,9)	(97,40)	(105,40)	(92,39)	(121,19)	(1,93)	(403,17)	(104,77)	(266,16)	(113,34)	(90,30)	(250,67)	(114,36)	(264,2)	(117,27)	
L1D -402>	(261,5)	(93,17)	(265,9)	(104,37)	(92,14)	(114,12)	(264,11)	(90,3)	(250,7)	(94,1)	(403,95)	(97,23)	(95,6)	(105,21)	(113,22)	(121,16)	
L1D -401>	(318,2)	(182,4)	(278,2)	(260,2)	(398,2)	(102,1)	(122,1)	(11,1)	(196,1)	(403,63)	(121,1)	(1,2)	(197,1)	(8,3)	(313,1)	(404,1)	
L1D -400>	(0,5)	(-64,3)	(283,1)	(400,4)	(464,1)	(121,2)	(2,1)	(112,4)	(122,40)	(384,2)	(105,1)	(363,3)	(399,1)	(278,3)	(44,4)	(403,2)	
L1D -399>	(0,6)	(1,62)	(399,49)	(250,7)	(120,3)	(403,25)	(392,2)	(278,12)	(90,8)	(-64,1)	(396,1)	(3,2)	(92,2)	(93,1)	(104,3)	(265,5)	
L1D -398>	(93,12)	(97,21)	(113,9)	(0,46)	(197,4)	(104,52)	(121,20)	(250,25)	(112,1)	(1,97)	(8,4)	(-3,22)	(3,4)	(264,5)	(-44,2)	(92,15)	
L1D -397>	(93,2)	(250,2)	(183,0)	(1,118)	(10,0)	(91,0)	(448,0)	(0,0)	(-26,0)	(1,0)	(1,0)	(1,0)	(1,0)	(1,0)	(1,0)	(1,0)	
L1D -396>	(-26,1)	(1,4)	(8,1)	(3,1)	(0,4)	(271,1)	(-9,1)	(-64,3)	(112,1)	(250,1)	(197,1)	(396,1)	(278,1)	(1,0)	(1,0)	(1,0)	
L1D -395>	(-1,2)	(102,1)	(101,1)	(0,1)	(1,40)	(-64,3)	(104,5)	(25,2)	(265,1)	(250,2)	(403,1)	(395,37)	(187,1)	(191,1)	(92,6)	(261,1)	
L1D -394>	(104,1)	(1,1)	(3,3)	(200,3)	(29,1)	(395,49)	(403,1)	(401,1)	(202,1)	(396,2)	(186,2)	(175,4)	(394,1)	(316,1)	(274,1)	(106,3)	
L1D -393>	(-64,6)	(393,13)	(359,1)	(255,1)	(8,4)	(0,3)	(128,1)	(197,5)	(395,43)	(391,5)	(-68,1)	(204,1)	(238,1)	(206,1)	(235,1)	(175,4)	
L1D -392>	(183,1)	(392,3)	(-1,1)	(-8,3)	(67,1)	(238,1)	(395,1)	(440,10)	(121,1)	(391,2)	(184,1)	(1,0)	(1,0)	(1,0)	(1,0)	(1,0)	
L1D -391>	(361,3)	(197,2)	(255,3)	(333,2)	(476,2)	(395,8)	(391,27)	(78,10)	(460,2)	(332,2)	(1,37)	(-64,10)	(11,4)	(274,1)	(393,1)	(0,1)	
L1D -390>	(0,15)	(-64,1)	(183,2)	(255,1)	(2,1)	(1,72)	(264,1)	(114,2)	(-52,1)	(1,0)	(1,0)	(1,0)	(1,0)	(1,0)	(1,0)	(1,0)	
L1D -389>	(-64,4)	(250,1)	(78,0)	(205,0)	(470,0)	(385,1)	(2,1)	(261,2)	(183,0)	(197,1)	(313,0)	(190,0)	(300,0)	(0,1)	(-55,0)	(1,70)	
L1D -388>	(388,1)	(-8,2)	(0,3)	(-16,8)	(462,1)	(-72,2)	(56,2)	(-1,1)	(8,1)	(-3,11)	(1,4)	(1,0)	(1,0)	(1,0)	(1,0)	(1,0)	
L1D -387>	(2,1)	(387,7)	(192,1)	(1,37)	(0,1)	(104,3)	(118,1)	(1,0)	(1,0)	(1,0)	(1,0)	(1,0)	(1,0)	(1,0)	(1,0)	(1,0)	
L1D -386>	(1,1)	(2,3)	(-64,9)	(208,1)	(121,1)	(387,21)	(0,1)	(296,1)	(-3,2)	(3,1)	(1,0)	(1,0)	(1,0)	(1,0)	(1,0)	(1,0)	
L1D -385>	(0,4)	(-64,7)	(122,18)	(113,1)	(2,4)	(385,2)	(51,1)	(8,34)	(-67,1)	(-2,1)	(383,2)	(387,5)	(336,1)	(313,2)	(404,1)	(197,3)	
L1D -384>	(121,12)	(0,6)	(383,1)	(-64,5)	(384,103)	(400,13)	(319,1)	(392,6)	(113,1)	(111,1)	(416,28)	(112,4)	(-72,5)	(50,1)	(448,2)	(440,3)	
L1D -383>	(1,9)	(260,1)	(383,35)	(120,2)	(0,2)	(-64,7)	(8,1)	(121,1)	(188,1)	(288,2)	(5,2)	(394,1)	(401,1)	(387,10)	(270,2)	(1,0)	
L1D -382>	(0,1)	(377,2)	(387,2)	(271,1)	(120,1)	(197,2)	(419,9)	(183,1)	(1,76)	(-128,1)	(415,1)	(266,1)	(1,0)	(1,0)	(1,0)	(1,0)	
L1D -381>	(-64,3)	(197,2)	(8,2)	(3,1)	(1,19)	(0,1)	(1,0)	(1,0)	(1,0)	(1,0)	(1,0)	(1,0)	(1,0)	(1,0)	(1,0)	(1,0)	
L1D -380>	(0,3)	(-64,3)	(250,7)	(380,3)	(55,28)	(252,3)	(-16,2)	(296,2)	(-72,2)	(238,2)	(264,1)	(348,1)	(-15,1)	(270,1)	(312,1)	(3,2)	
L1D -379>	(1,16)	(286,1)	(-80,1)	(0,5)	(267,2)	(197,2)	(122,1)	(379,6)	(270,1)	(363,5)	(1,0)	(1,0)	(1,0)	(1,0)	(1,0)	(1,0)	
L1D -378>	(-48,3)	(3,7)	(115,5)	(293,2)	(380,18)	(379,2)	(16,7)	(0,6)	(67,1)	(-64,3)	(-32,4)	(8,1)	(182,1)	(378,16)	(63,1)	(200,11)	
L1D -377>	(0,12)	(114,9)	(312,4)	(5,11)	(-64,25)	(313,3)	(377,46)	(379,1)	(60,1)	(344,1)	(1,1)	(8,10)	(197,31)	(282,1)	(286,1)	(126,2)	
L1D -376>	(113,9)	(51,12)	(368,2)	(345,4)	(8,36)	(16,6)	(0,7)	(337,3)	(98,2)	(440,12)	(55,8)	(245,3)	(375,1)	(242,1)	(116,1)	(-12,2)	
L1D -375>	(347,4)	(296,3)	(92,2)	(379,2)	(95,2)	(375,18)	(60,3)	(-3,2)	(1,2)	(372,1)	(8,2)	(-55,3)	(197,7)	(-128,8)	(183,4)	(97,3)	
L1D -374>	(-64,1)	(8,4)	(246,1)	(0,2)	(271,2)	(96,9)	(407,3)	(411,3)	(363,1)	(1,15)	(1,0)	(1,0)	(1,0)	(1,0)	(1,0)	(1,0)	
L1D -373>	(-64,23)	(1,4)	(16,2)	(243,2)	(271,14)	(79,1)	(259,1)	(252,1)	(244,1)	(284,1)	(250,1)	(302,1)	(264,1)	(275,1)	(265,1)	(241,1)	
L1D -372>	(0,25)	(372,3)	(55,1)	(468,1)	(-72,6)	(1,0)	(1,0)	(1,0)	(1,0)	(1,0)	(1,0)	(1,0)	(1,0)	(1,0)	(1,0)	(1,0)	
L1D -371>	(176,1)	(174,1)	(8,5)	(16,3)	(-64,1)	(-8,3)	(371,1)	(1,4)	(1,0)	(1,0)	(1,0)	(1,0)	(1,0)	(1,0)	(1,0)	(1,0)	
L1D -370>	(0,1)	(125,1)	(8,9)	(25,28)	(207,1)	(1,2)	(251,1)	(-8,1)	(1,0)	(1,0)	(1,0)	(1,0)	(1,0)	(1,0)	(1,0)	(1,0)	
L1D -369>	(-1,1)	(106,1)	(-64,9)	(277,1)	(274,1)	(8,7)	(16,1)	(160,1)	(157,2)	(367,1)	(20,1)	(1,0)	(1,0)	(1,0)	(1,0)	(1,0)	
L1D -368>	(-128,1)	(437,2)	(368,30)	(361,16)	(438,25)	(8,3)	(440,1)	(439,6)	(-64,5)	(55,17)	(432,1)	(253,2)	(252,6)	(245,1)	(309,2)	(259,2)	
L1D -367>	(104,2)	(-64,26)	(368,2)	(5,3)	(22,1)	(0,1)	(1,0)	(1,0)	(1,0)	(1,0)	(1,0)	(1,0)	(1,0)	(1,0)	(1,0)	(1,0)	
L1D -366>	(331,2)	(9,21)	(8,1)	(3,7)	(5,2)	(-64,5)	(6,2)	(78,2)	(241,1)	(0,1)	(399,1)	(1,0)	(1,0)	(1,0)	(1,0)	(1,0)	
L1D -365>	(-64,57)	(369,2)	(72,5)	(1,0)	(1,0)	(1,0)	(1,0)	(1,0)	(1,0)	(1,0)	(1,0)	(1,0)	(1,0)	(1,0)	(1,0)	(1,0)	
L1D -364>	(-64,81)	(-80,2)	(44,2)	(50,2)	(52,9)	(316,2)	(364,2)	(5,81)	(51,6)	(79,1)	(227,1)	(236,3)	(49,6)	(9,48)	(353,1)	(365,1)	
L1D -363>	(-1,8)	(51,9)	(-64,1)	(361,1)	(75,62)	(9,44)	(355,1)	(-8,1)	(5,2)	(367,2)	(-2,15)	(72,15)	(80,1)	(8,1)	(1,0)	(1,0)	
L1D -362>	(50,3)	(0,2)	(36,1)	(52,1)	(-64,8)	(51,1)	(27,3)	(464,1)	(17,1)	(-8,1)	(72,3)	(331,2)	(-2,1)	(341,1)	(366,1)	(314,1)	
L1D -361>	(340,1)	(-64,29)	(331,7)	(-16,1)	(354,2)	(116,1)	(359,1)	(44,1)	(-8,3)	(361,6)	(49,1)	(-2,1)	(1,2)	(395,1)	(330,1)	(366,1)	
L1D -360>	(48,13)	(1,2)	(358,4)	(313,3)	(453,1)	(51,1)	(-128,13)	(40,1)	(64,4)	(-64,9)	(360,12)	(361,14)	(2,1)	(47,5)	(72,1)	(-2,8)	
L1D -359>	(1,3)	(0,6)	(331,5)	(47,9)	(76,4)	(93,3)	(358,1)	(267,1)	(-2,1)	(-3,72)	(-128,2)	(364,1)	(8,3)	(-64,1)	(359,2)	(3,3)	
L1D -358>	(354,1)	(220,1)	(46,5)	(0,9)	(364,2)	(363,2)	(-3,34)	(-64,1)	(347,1)	(275,1)	(3,6)	(243,1)	(128,6)	(362,2)	(80,6)	(-8,1)	
L1D -357>	(351,1)	(0,1)	(-128,4)	(220,2)	(-2,3)	(357,1)	(79,2)	(350,1)	(47,1)	(48,1)	(-8,1)	(46,1)	(1,0)	(1,0)	(1,0)	(1,0)	
L1D -356>	(361,1)	(343,2)	(218,1)	(220,2)	(0,2)	(79,1)	(100,1)	(356,2)	(47,4)	(347,1)	(-39,6)	(5,13)	(41,1)	(48,1)	(113,1)	(1,0)	
L1D -355>	(43,3)	(110,2)	(123,2)	(3,3)	(438,2)	(-16,5)	(364,1)	(0,3)	(341,6)	(8,2)	(467,1)	(347,1)	(47,1)	(44,1)	(355,1)	(265,1)	
L1D -354>	(216,1)	(1,9)	(220,1)	(-64,6)	(364,1)	(354,4)	(13,2)	(0,1)	(45,2)	(474,1)	(1,0)	(1,0)	(1,0)	(1,0)	(1,0)	(1,0)	
L1D -353>	(216,1)	(121,1)	(-64,1)	(41,1)	(243,1)	(342,1)	(1,2)	(122,2)	(331,1)	(16,1)	(123,1)	(47,1)	(343,1)	(1,0)	(1,0)	(1,0)	
L1D -352>	(122,2)	(123,2)	(-2,39)	(110,2)	(352,3)	(339,1)	(1,1)	(0,1)	(344,2)	(-64,4)	(-128,4)	(354,1)	(471,3)	(253,1)	(120,1)	(361,1)	
L1D -351>	(-128,1)	(121,1)	(122,1)	(39,1)	(217,1)	(120,1)	(352,2)	(335,1)	(332,1)	(44,1)	(351,1)	(29,1)	(96,3)	(15,1)	(363,2)	(266,1)	
L1D -350>	(110,1)	(118,1)	(-64,1)	(364,1)	(343,1)	(128,1)	(471,1)	(120,1)	(2,1)	(-79,1)	(0,1)	(39,1)	(-128,1)	(-1,1)	(1,0)	(1,0)	
L1D -349>	(-128,3)	(48,1)	(351,1)	(66,1)	(321,1)	(79,1)	(9,1)	(328,2)	(244,2)	(225,1)	(325,1)	(119,1)	(0,2)	(17,1)	(333,1)	(37,2)	
L1D -348>	(118,2)	(-8,1)	(36,1)	(123,1)	(-32,1)	(-64,1)	(122,1)	(338,1)	(351,3)	(111,1)	(-16,1)	(1,0)	(1,0)	(1,0)	(1,0)	(1,0)	
L1D -347>	(123,1)	(219,1)	(113,1)	(347,2)	(262,1)	(252,1)	(364,1)	(-65,1)	(-64,1)	(0,1)	(270,1)	(360,3)	(341,1)	(332,1)	(349,1)	(1,0)	
L1D -346>	(110,1)	(466,32)	(364,1)	(346,6)	(-64,2)	(358,2)	(360,2)	(1,0)	(1,0)	(1,0)	(1,0)	(1,0)	(1,0)	(1,0)	(1,0)	(1,0)	
L1D -345>	(-64,2)	(275,2)	(-16,3)	(243,11)	(297,2)	(-3,2)	(-47,17)	(-128,2)	(44,1)	(22,12)	(-129,1)	(23,20)	(0,2)	(165,1)	(120,1)	(325,1)	
L1D -344>	(113,2)	(-16,4)	(0,6)	(-64,2)	(-128,3)	(-8,8)	(363,2)	(344,2)	(-7,5)	(106,2)	(35,2)	(458,1)	(-6,1)	(356,1)	(1,0)	(1,0)	
L1D -343>	(275,23)	(8,3)	(-64,7)	(7,1)	(115,1)	(277,1)	(339,1)	(364,1)	(0,2)	(-128,9)	(3,1)	(363,2)	(223,3)	(358,1)	(359,1)	(199,1)	
L1D -342>	(118,1)	(-112,1)	(114,2)	(275,1)	(363,1)	(326,1)	(117,1)	(-128,1)	(360,1)	(1,0)	(1,0)	(1,0)	(1,0)	(1,0)	(1,0)	(1,0)	
L1D -341>	(220,1)	(110,2)	(216,1)	(107,2)	(219,6)	(364,1)	(0,1)	(348,1)	(-64,5)	(114,1)	(245,1)	(120,1)	(9,2)	(1,0)	(1,0)	(1,0)	
L1D -340>	(-128,2)	(123,2)	(0,4)	(113,1)	(219,21)	(-64,3)	(454,2)	(-1,1)	(110,7)	(108,2)	(111,4)	(209,5)	(115,1)	(118,4)	(122,2)	(453,11)	
L1D -339>	(286,22)	(-1,1)	(461,0)	(342,1)	(26,1)	(0,2)	(276,109)	(336,0)	(-64,0)	(208,0)	(218,0)	(360,0)	(1,0)	(1,0)	(1,0)	(1,0)	
L1D -338>	(148,2)	(338,3)	(219,14)	(275,7)	(424,2)	(337,4)	(26,4)	(244,2)	(466,3)	(-134,1)	(335,1)	(24,4)	(122,1)	(146,1)	(-128,2)	(458,6)	
L1D -337>	(1,12)	(275,39)	(113,19)	(283,2)	(242,2)	(0,2)	(111,17)	(110,30)	(316,8)	(200,3)	(25,1)	(219,7)	(26,2)	(120,6)	(243,5)	(274,2)	
L1D -336>	(108,3)	(326,10)	(164,8)	(275,2)	(110,18)	(338,2)	(25,2)	(245,9)	(-128,14)	(24,8)	(367,1)	(-28,1)	(471,1)	(122,1)	(-64,5)	(352,1)	
L1D -335>	(109,5)	(120,19)	(123,18)	(220,42)	(108,100)	(115,4)	(111,50)	(219,73)	(-64,9)	(213,5)	(197,10)	(113,2)	(119,17)	(122,10)	(112,19)	(209,1)	
L1D -334>	(219,13)	(217,5)	(218,11)	(122,3)	(117,7)	(123,3)	(108,23)	(107,30)	(110,70)	(118,6)	(3,3)	(113,0)	(105,4)	(220,9)	(210,3)	(111,6)	
L1D -333>	(333,2)	(0,7)	(123,2)	(124,24)	(105,2)	(113,2)	(-109,1)	(9,5)	(4,2)	(219,1)	(331,1)	(112,1)	(108,5)	(313,2)	(66,1)	(5,3)	
L1D -332>	(105,63)	(329,60)	(335,34)	(0,14)	(215,1)	(198,6)	(1,53)	(3,64)	(109,26)	(-2,52)	(121,28)	(110,27)	(196,16)	(111,76)	(108,70)	(201,17)	
L1D -331>	(0,18)	(113,18)	(114,8)	(334,50)	(3,64)	(328,55)	(217,0)	(107,21)	(105,8)	(329,7)	(-3,25)	(337,12)	(110,40)	(123,10)	(332,9)	(111,48)	
L1D -330>	(286,47)	(120,2)	(268,1)	(164,3)	(18,1)	(276,105)	(126,0)	(113,0)	(0,3)	(116,0)	(111,0)	(15,1)	(458,0)	(41,1)	(124,8)	(83,7)	
L1D -329>	(41,60)	(4,3)	(9,75)	(203,1)	(40,10)	(192,1)	(221,0)	(111,3)	(108,0)	(-3,0)	(214,0)	(110,1)	(329,0)	(328,1)	(117,2)	(-114,0)	
L1D -328>	(1,21)	(7,14)	(110,20)	(324,1)	(4,26)	(108,6)	(120,13)	(-128,9)	(191,6)	(-64,7)	(192,7)	(328,2)	(-6,6)	(122,2)	(114,3)	(9,4)	
L1D -327>	(5,44)	(-1,7)	(117,2)	(107,2)	(-8,4)	(210,2)	(8,5)	(191,5)	(106,1)	(-128,8)	(313,2)	(-64,4)	(78,1)	(7,74)	(-5,3)	(327,3)	
L1D -326>	(105,1)	(110,23)	(326,9)	(118,3)	(332,2)	(313,4)	(191,5)	(2,5)	(-128,12)	(107,17)	(0,6)	(113,17)	(-52,8)	(114,2)	(111,52)	(117,4)	
L1D -325>	(221,0)	(5,36)	(-11,76)	(9,6)	(-6,4)	(313,0)	(-14,1)	(41,94)	(325,1)	(190,0)	(324,0)	(60,0)	(107,0)	(-128,0)	(13,1)	(454,0)	
L1D -324>	(113,1)	(9,94)	(465,0)	(4,9)	(40,8)	(275,0)	(-4,0)	(-9,0)	(1,0)	(1,0)	(1,0)	(1,0)	(1,0)	(1,0)	(1,0)	(1,0)	
L1D -323>	(9,118)	(453,1)	(1,2)	(214,8)	(2,8)	(-10,12)	(-1,3)	(112,1)	(44,21)	(5,18)	(13,1)	(11,1)	(110,2)	(113,1)	(323,1)	(120,0)	
L1D -322>	(5,51)	(41,36)	(4,1)	(0,45)	(191,3)	(267,5)	(128,5)	(-3,27)	(67,3)	(131,2)	(2,4)	(123,3)	(-63,2)	(315,7)	(10,2)	(322,5)	
L1D -321>	(5,79)	(4,5)	(8,2)	(41,21)	(-1,8)	(2,2)	(331,2)	(214,25)	(-64,25)	(321,6)	(66,2)	(-2,1)	(454,1)	(0,3)	(499,1)	(319,4)	
L1D -320>	(319,1)	(40,87)	(117,1)	(-13,1)	(5,33)	(-64,5)	(9,3)	(-6,1)	(112,1)	(192,1)	(4,2)	(41,113)	(-12,2)	(-60,1)	(114,0)	(18,0)	
L1D -319>	(319,13)	(9,83)	(317,1)	(191,2)	(40,1)	(322,1)	(6,4)	(318,3)	(4,3)	(446,2)	(316,1)	(113,1)	(0,2)	(121,1)	(104,1)	(448,1)	
L1D -318>	(120,0)	(-2,0)	(326,0)	(318,0)	(-1,0)	(9,71)	(4,0)	(24,0)	(474,0)	(0,0)	(317,0)	(-14,0)	(1,0)	(1,0)	(1,0)	(1,0)	
L1D -317>	(330,2)	(313,5)	(4,10)	(-11,5)	(-41,2)	(-37,1)	(0,12)	(7,2)	(226,1)	(318,1)	(317,13)	(155,1)	(315,3)	(-15,4)	(2,10)	(314,4)	
L1D -316>	(2,50)	(41,32)	(-7,3)	(0,3)	(-16,2)	(-11,12)	(313,14)	(314,3)	(-6,7)	(316,10)	(114,1)	(-80,1)	(1,47)	(310,2)	(122,20)	(115,5)	
L1D -315>	(316,5)	(192,3)	(-49,3)	(309,2)	(-64,5)	(285,2)	(3,7)	(-45,2)	(299,3)	(0,5)	(311,1)	(-39,1)	(121,3)	(108,1)	(4,1)	(113,1)	
L1D -314>	(120,2)	(2,4)	(314,7)	(-4,5)	(313,1)	(312,4)	(-64,54)	(296,1)	(326,1)	(316,3)	(0,2)	(240,1)	(-30,1)	(299,1)	(304,4)	(295,1)	
L1D -313>	(-5,13)	(-2,6)	(197,11)	(313,16)	(-3,3)	(-4,8)	(310,10)	(308,4)	(-128,5)	(309,5)	(311,15)	(-6,2)	(317,2)	(298,2)	(312,8)	(314,1)	
L1D -312>	(312,23)	(314,53)	(-24,5)	(308,26)	(310,69)	(2,21)	(311,91)	(313,63)	(315,62)	(309,51)	(-52,3)	(-64,17)	(292,5)	(319,17)	(-26,1)	(326,8)	
L1D -311>	(32,19)	(330,6)	(113,3)	(335,3)	(-64,30)	(-128,8)	(-6,2)	(3,31)	(255,3)	(294,7)	(332,3)	(60,2)	(-19,1)	(-37,3)	(-1,19)	(2,1)	
L1D -310>	(91,5)	(1,4)	(199,2)	(168,12)	(82,3)	(313,6)	(-9,3)	(111,2)	(4,4)	(-2,44)	(312,5)	(-17,2)	(3,4)	(12,3)	(309,2)	(318,1)	
L1D -309>	(457,21)	(111,2)	(-64,70)	(12,2)	(133,2)	(-52,3)	(316,6)	(0,11)	(-9,16)	(308,8)	(309,1)	(-8,2)	(311,1)	(-3,8)	(199,16)	(330,4)	
L1D -308>	(165,5)	(83,2)	(192,4)	(5,6)	(101,5)	(2,3)	(95,1)	(299,2)	(312,3)	(-4,2)	(0,3)	(-7,1)	(16,2)	(308,1)	(324,4)	(315,1)	
L1D -307>	(3,2)	(291,1)	(-21,1)	(440,3)	(129,1)	(307,2)	(-64,2)	(242,1)	(192,4)	(8,1)	(18,4)	(137,1)	(335,1)	(312,1)	(458,1)	(0,1)	
L1D -306>	(16,84)	(295,2)	(24,12)	(8,1)	(317,0)	(3,4)	(0,3)	(104,0)	(163,0)	(93,1)	(306,2)	(99,0)	(-7,0)	(55,0)	(320,0)	(-5,0)	
L1D -305>	(457,10)	(-64,58)	(4,6)	(7,3)	(409,2)	(310,2)	(-11,5)	(264,3)	(275,3)	(8,2)	(322,1)	(20,1)	(-7,3)	(305,2)	(272,2)	(24,33)	
L1D -304>	(-64,3)	(325,1)	(3,1)	(0,10)	(7,5)	(305,1)	(465,1)	(311,5)	(-6,1)	(306,1)	(-14,1)	(100,1)	(-12,4)	(304,2)	(-128,50)	(4,1)	
L1D -303>	(0,7)	(32,2)	(24,2)	(461,3)	(288,2)	(381,1)	(306,1)	(323,2)	(-9,2)	(322,2)	(-64,10)	(3,1)	(27,2)	(-16,2)	(311,1)	(2,1)	
L1D -302>	(310,1)	(1,4)	(324,1)	(-103,1)	(322,1)	(7,1)	(-64,7)	(-1,1)	(302,5)	(159,6)	(-2,9)	(409,28)	(-128,5)	(301,1)	(384,1)	(416,1)	
L1D -301>	(-64,42)	(0,9)	(457,3)	(24,14)	(449,4)	(9,9)	(-18,3)	(-8,36)	(1,2)	(-16,2)	(301,2)	(311,1)	(322,1)	(-4,13)	(64,1)	(203,1)	
L1D -300>	(-64,26)	(-12,4)	(197,4)	(-4,5)	(157,4)	(-8,3)	(327,1)	(0,18)	(300,9)	(122,1)	(183,11)	(66,2)	(124,1)	(57,2)	(1,1)	(9,2)	
L1D -299>	(121,2)	(327,2)	(299,4)	(311,3)	(112,1)	(-52,1)	(310,2)	(283,2)	(-2,1)	(-108,1)	(-172,1)	(7,1)	(-106,1)	(246,1)	(335,1)	(-128,1)	
L1D -298>	(434,3)	(-105,4)	(298,7)	(1,4)	(-14,2)	(299,1)	(297,1)	(-24,12)	(26,2)	(-1,2)	(0,6)	(127,4)	(226,1)	(113,1)	(-13,32)	(6,1)	
L1D -297>	(18,2)	(1,81)	(0,37)	(-64,11)	(457,4)	(449,2)	(264,2)	(6,3)	(297,2)	(-13,5)	(-15,1)	(-128,7)	(326,1)	(459,1)	(183,2)	(-79,1)	
L1D -296>	(0,10)	(-4,4)	(296,5)	(-64,42)	(-5,1)	(298,1)	(-138,1)	(152,1)	(-12,1)	(-66,2)	(-128,3)	(-16,1)	(316,1)	(-13,1)	(297,1)	(-26,2)	
L1D -295>	(0,6)	(-7,2)	(82,2)	(-15,1)	(-16,4)	(454,1)	(355,1)	(-128,12)	(2,4)	(461,4)	(337,2)	(361,2)	(139,1)	(-17,1)	(56,1)	(409,2)	
L1D -294>	(334,7)	(-13,2)	(27,3)	(313,1)	(295,1)	(255,2)	(-128,1)	(294,1)	(291,1)	(179,1)	(211,1)	(-64,2)	(-24,5)	(9,1)	(15,44)	(287,1)	
L1D -293>	(457,8)	(326,15)	(264,10)	(459,3)	(313,2)	(272,3)	(458,4)	(293,5)	(-1,4)	(3,1)	(275,1)	(288,7)	(165,2)	(197,22)	(337,6)	(361,17)	
L1D -292>	(325,2)	(337,4)	(451,5)	(3,9)	(292,32)	(281,2)	(-64,3)	(288,2)	(317,3)	(361,13)	(293,1)	(326,9)	(246,4)	(459,7)	(344,3)	(-2,2)	
L1D -291>	(264,3)	(255,3)	(1,2)	(458,18)	(57,2)	(48,2)	(66,3)	(263,2)	(280,2)	(-9,2)	(343,2)	(347,2)	(298,3)	(331,2)	(322,1)	(330,1)	
L1D -290>	(1,4)	(-9,3)	(350,2)	(83,2)	(-8,9)	(38,1)	(11,30)	(263,10)	(0,9)	(275,1)	(-22,3)	(47,2)	(330,1)	(331,2)	(197,6)	(342,3)	
L1D -289>	(41,78)	(-1,2)	(57,1)	(9,92)	(-8,2)	(288,1)	(250,3)	(289,1)	(36,1)	(273,0)	(257,0)	(40,1)	(354,0)	(265,0)	(272,0)	(263,0)	
L1D -288>	(4,9)	(268,1)	(-128,7)	(289,3)	(9,2)	(465,4)	(257,2)	(281,14)	(40,25)	(8,14)	(-64,2)	(263,2)	(249,4)	(288,30)	(250,4)	(256,6)	
L1D -287>	(9,2)	(451,3)	(453,8)	(-64,2)	(-1,1)	(278,1)	(8,113)	(3,34)	(287,3)	(461,22)	(331,1)	(0,4)	(16,1)	(333,2)	(1,1)	(2,1)	
L1D -286>	(9,21)	(-5,4)	(-11,16)	(7,3)	(5,2)	(393,2)	(197,1)	(8,1)	(-64,5)	(255,1)	(-9,11)	(-7,63)	(-16,6)	(60,3)	(285,3)	(288,1)	
L1D -285>	(4,5)	(41,2)	(-3,5)	(465,2)	(197,3)	(98,5)	(285,9)	(449,2)	(-2,1)	(32,1)	(337,1)	(9,4)	(24,1)	(2,1)	(-32,1)	(-9,4)	
L1D -284>	(340,0)	(40,37)	(9,110)	(4,7)	(-1,2)	(330,0)	(-55,0)	(252,0)	(0,0)	(97,0)	(283,0)	(5,1)	(1,1)	(1,0)	(1,0)	(1,0)	
L1D -283>	(4,109)	(283,2)	(384,0)	(-2,0)	(-3,0)	(113,0)	(255,0)	(9,2)	(1,0)	(1,0)	(1,0)	(1,0)	(1,0)	(1,0)	(1,0)	(1,0)	
L1D -282>	(271,4)	(290,4)	(255,3)	(120,1)	(41,20)	(5,2)	(313,2)	(257,2)	(0,28)	(1,19)	(197,23)	(286,2)	(282,6)	(272,2)	(304,2)	(342,5)	
L1D -281>	(42,48)	(271,3)	(41,13)	(268,16)	(256,3)	(292,6)	(221,8)	(449,5)	(265,6)	(274,4)	(-128,12)	(-8,1)	(453,3)	(304,2)	(465,2)	(275,11)	
L1D -280>	(5,6)	(41,87)	(252,2)	(264,0)	(42,0)	(-128,1)	(54,1)	(50,0)	(40,0)	(4,0)	(284,0)	(-1,0)	(221,0)	(1,1)	(1,0)	(1,0)	
L1D -279>	(-11,96)	(256,11)	(105,1)	(103,3)	(255,8)	(267,6)	(453,39)	(4,13)	(221,7)	(197,5)	(-3,3)	(40,10)	(220,3)	(-128,3)	(274,7)	(0,5)	
L1D -278>	(1,3)	(0,86)	(-2,6)	(221,10)	(-64,2)	(-1,2)	(16,2)	(219,3)	(268,2)	(218,3)	(-15,1)	(-32,1)	(254,2)	(471,3)	(-117,2)	(396,1)	
L1D -277>	(266,2)	(241,2)	(-5,2)	(220,5)	(326,4)	(219,4)	(360,3)	(275,4)	(277,6)	(317,2)	(359,1)	(0,9)	(-15,3)	(267,2)	(221,10)	(259,2)	
L1D -276>	(219,6)	(220,8)	(256,4)	(-64,12)	(104,6)	(485,2)	(276,76)	(89,23)	(281,2)	(311,6)	(266,2)	(328,2)	(-6,1)	(8,1)	(24,1)	(459,1)	
L1D -275>	(36,22)	(41,16)	(274,8)	(343,12)	(350,4)	(360,1)	(310,5)	(459,16)	(-64,7)	(318,3)	(317,3)	(0,50)	(361,44)	(326,26)	(368,8)	(330,15)	
L1D -274>	(-64,2)	(276,11)	(220,6)	(326,11)	(-128,3)	(309,11)	(0,20)	(459,7)	(-9,4)	(334,3)	(-2,3)	(250,2)	(249,4)	(1,7)	(217,1)	(16,1)	
L1D -273>	(1,30)	(272,5)	(264,2)	(221,2)	(241,3)	(266,2)	(59,2)	(465,4)	(219,2)	(256,3)	(259,2)	(290,7)	(220,10)	(0,1)	(249,1)	(-8,1)	
L1D -272>	(0,55)	(218,3)	(272,15)	(221,7)	(264,28)	(256,3)	(268,10)	(252,3)	(1,54)	(16,3)	(-64,14)	(-1,1)	(-128,12)	(260,12)	(292,3)	(288,2)	
L1D -271>	(1,12)	(0,13)	(282,1)	(-16,7)	(5,1)	(437,1)	(11,0)	(13,2)	(41,107)	(54,7)	(220,1)	(263,0)	(219,0)	(-64,2)	(50,1)	(271,1)	
L1D -270>	(0,66)	(-64,12)	(261,1)	(221,20)	(-9,20)	(253,4)	(271,2)	(451,1)	(2,5)	(275,1)	(-3,1)	(1,118)	(-128,4)	(16,8)	(462,1)	(270,3)	
L1D -269>	(0,8)	(220,34)	(384,7)	(5,2)	(221,89)	(268,2)	(466,2)	(269,2)	(468,3)	(-4,21)	(448,3)	(260,4)	(-16,5)	(72,3)	(82,6)	(319,1)	
L1D -268>	(465,24)	(221,115)	(258,8)	(249,13)	(281,32)	(283,9)	(220,46)	(288,32)	(264,4)	(268,12)	(219,20)	(282,14)	(256,125)	(273,12)	(248,5)	(340,1)	
L1D -267>	(-64,30)	(220,89)	(218,12)	(221,10)	(0,26)	(219,19)	(-1,4)	(268,4)	(95,61)	(80,14)	(106,4)	(444,11)	(112,3)	(272,2)	(1,22)	(315,6)	
L1D -266>	(219,59)	(-1,6)	(272,6)	(220,3)	(0,36)	(250,3)	(218,11)	(266,15)	(276,4)	(221,74)	(465,2)	(248,2)	(1,47)	(267,3)	(256,3)	(304,2)	
L1D -265>	(0,54)	(138,1)	(218,35)	(220,88)	(290,6)	(256,9)	(288,15)	(304,8)	(465,15)	(265,12)	(276,9)	(7,4)	(264,79)	(-16,9)	(268,43)	(275,12)	
L1D -264>	(249,0)	(-1,5)	(296,4)	(-16,3)	(465,5)	(0,10)	(276,2)	(-128,3)	(219,22)	(256,14)	(252,64)	(284,17)	(264,33)	(5,9)	(299,3)	(2,3)	
L1D -263>	(245,5)	(0,13)	(218,11)	(437,19)	(307,3)	(139,2)	(221,6)	(39,2)	(341,1)	(-128,26)	(220,1)	(261,1)	(-16,3)	(-13,1)	(264,2)	(8,1)	
L1D -262>	(216,2)	(217,3)	(197,3)	(183,2)	(0,6)	(79,2)	(221,1)	(-3,51)	(220,100)	(3,25)	(105,2)	(443,1)	(8,2)	(262,2)	(2,1)	(261,2)	
L1D -261>	(243,4)	(115,10)	(5,3)	(270,9)	(122,26)	(219,5)	(2,33)	(1,10)	(261,42)	(220,1)	(221,64)	(183,41)	(0,16)	(197,2)	(377,8)	(465,4)	
L1D -260>	(-11,9)	(112,7)	(268,6)	(2,39)	(220,64)	(-5,68)	(465,7)	(319,11)	(121,13)	(-145,4)	(-6,1)	(264,3)	(260,71)	(221,7)	(-1,3)	(122,8)	
L1D -259>	(-5,17)	(220,37)	(292,9)	(290,10)	(310,7)	(121,22)	(250,5)	(112,15)	(219,45)	(2,6)	(122,9)	(264,10)	(-12,12)	(336,1)	(0,17)	(120,6)	
L1D -258>	(0,10)	(276,6)	(1,4)	(258,8)	(268,5)	(-13,71)	(293,3)	(264,3)	(465,3)	(267,7)	(416,4)	(-64,3)	(121,3)	(95,4)	(112,2)	(114,1)	
L1D -257>	(284,5)	(221,11)	(264,29)	(250,18)	(-3,16)	(120,6)	(113,2)	(465,18)	(0,84)	(258,31)	(282,5)	(275,29)	(266,5)	(268,87)	(232,6)	(260,29)	
L1D -256>	(0,53)	(1,39)	(465,9)	(260,6)	(259,7)	(256,39)	(288,5)	(283,11)	(112,1)	(257,4)	(282,6)	(221,99)	(268,58)	(297,4)	(121,4)	(252,60)	
L1D -255>	(0,15)	(216,8)	(255,35)	(16,18)	(128,7)	(111,2)	(73,2)	(221,2)	(1,2)	(-1,2)	(-8,16)	(-64,6)	(220,50)	(219,4)	(191,3)	(-55,4)	
L1D -254>	(1,41)	(217,12)	(263,5)	(0,6)	(219,23)	(220,7)	(8,9)	(250,6)	(-8,5)	(-2,51)	(253,87)	(71,12)	(197,1)	(-17,2)	(254,17)	(257,66)	
L1D -253>	(294,5)	(262,6)	(357,10)	(0,5)	(304,3)	(114,3)	(-64,3)	(253,7)	(452,10)	(257,10)	(333,3)	(221,3)	(341,1)	(264,3)	(252,7)	(256,3)	
L1D -252>	(7,87)	(0,4)	(451,1)	(465,2)	(55,1)	(252,10)	(-9,14)	(264,1)	(6,23)	(248,0)	(273,1)	(2,1)	(332,4)	(1,3)	(221,1)	(340,6)	
L1D -251>	(113,3)	(5,93)	(7,2)	(264,1)	(-8,0)	(15,0)	(1,0)	(251,0)	(362,0)	(4,1)	(0,0)	(118,0)	(-1,20)	(448,1)	(8,0)	(220,1)	
L1D -250>	(101,27)	(103,31)	(102,21)	(121,91)	(90,25)	(250,109)	(95,3)	(117,13)	(91,12)	(104,55)	(114,10)	(110,8)	(97,3)	(265,27)	(264,14)	(246,1)	
L1D -249>	(264,27)	(289,28)	(15,1)	(256,9)	(268,4)	(260,5)	(220,17)	(273,10)	(272,5)	(357,8)	(248,5)	(290,3)	(288,4)	(265,4)	(249,9)	(250,4)	
L1D -248>	(-8,1)	(284,1)	(236,1)	(248,1)	(5,9)	(104,0)	(264,1)	(40,123)	(249,0)	(4,1)	(252,7)	(260,0)	(220,5)	(0,0)	(79,0)	(269,0)	
L1D -247>	(8,57)	(9,1)	(-85,78)	(218,2)	(-84,3)	(0,16)	(1,4)	(197,5)	(247,24)	(16,14)	(337,6)	(5,2)	(-216,15)	(245,10)	(-8,2)	(38,2)	
L1D -246>	(-64,10)	(-216,1)	(56,1)	(0,1)	(-7,2)	(1,4)	(75,2)	(246,3)	(-1,3)	(271,1)	(40,1)	(5,4)	(-89,3)	(8,127)	(7,108)	(-83,7)	
L1D -245>	(438,7)	(9,14)	(0,26)	(-87,115)	(-15,3)	(-64,7)	(4,1)	(221,10)	(8,4)	(245,52)	(242,78)	(56,6)	(93,2)	(459,2)	(246,2)	(5,25)	
L1D -244>	(242,0)	(5,102)	(9,3)	(-216,0)	(220,0)	(40,0)	(221,0)	(244,0)	(1,0)	(71,0)	(-107,0)	(10,0)	(13,0)	(77,0)	(1,0)	(1,0)	
L1D -243>	(6,0)	(-7,0)	(4,20)	(5,65)	(-4,0)	(244,0)	(102,0)	(-9,2)	(243,0)	(345,0)	(9,4)	(-64,0)	(218,0)	(106,0)	(241,0)	(220,0)	
L1D -242>	(221,22)	(0,18)	(238,4)	(435,24)	(9,1)	(1,86)	(431,4)	(-90,9)	(-84,6)	(-10,47)	(242,88)	(245,20)	(-64,2)	(247,17)	(5,99)	(44,38)	
L1D -241>	(5,89)	(221,8)	(1,7)	(10,5)	(217,3)	(220,3)	(40,16)	(79,1)	(0,11)	(235,3)	(274,5)	(-9,14)	(-64,2)	(240,5)	(-107,2)	(209,2)	
L1D -240>	(276,1)	(5,97)	(0,1)	(40,20)	(238,2)	(4,5)	(103,1)	(-2,3)	(221,29)	(56,4)	(-64,33)	(447,1)	(240,2)	(79,1)	(64,113)	(239,9)	
L1D -239>	(5,82)	(4,15)	(220,14)	(-42,6)	(1,63)	(221,30)	(40,113)	(219,5)	(-110,4)	(79,4)	(0,11)	(236,1)	(186,9)	(218,6)	(316,2)	(-64,18)	
L1D -238>	(219,23)	(-42,41)	(1,28)	(238,29)	(446,3)	(5,40)	(0,16)	(-107,5)	(-100,3)	(217,3)	(226,1)	(19,2)	(266,7)	(4,8)	(237,12)	(-9,5)	
L1D -237>	(217,3)	(240,12)	(309,7)	(220,3)	(251,9)	(13,4)	(56,2)	(303,2)	(221,23)	(219,2)	(237,18)	(0,6)	(-17,2)	(-219,1)	(460,1)	(55,3)	
L1D -236>	(220,3)	(221,77)	(3,110)	(1,5)	(236,8)	(437,2)	(-64,118)	(0,4)	(224,2)	(138,2)	(237,2)	(240,1)	(55,1)	(426,1)	(-144,4)	(427,4)	
L1D -235>	(219,13)	(68,3)	(6,9)	(233,39)	(231,1)	(0,3)	(232,5)	(-1,3)	(235,4)	(5,95)	(234,2)	(220,21)	(1,2)	(395,10)	(3,16)	(41,17)	
L1D -234>	(221,7)	(-2,2)	(270,2)	(-100,36)	(103,3)	(32,2)	(218,19)	(13,2)	(-64,2)	(232,16)	(3,18)	(1,6)	(219,16)	(4,13)	(220,2)	(234,8)	
L1D -233>	(3,41)	(233,15)	(218,12)	(8,3)	(224,2)	(227,3)	(0,14)	(242,2)	(219,5)	(-216,1)	(232,46)	(222,2)	(237,2)	(221,20)	(9,3)	(236,2)	
L1D -232>	(-117,10)	(0,20)	(3,42)	(221,6)	(-111,11)	(-64,9)	(-118,4)	(403,4)	(-120,1)	(315,4)	(1,40)	(219,6)	(292,10)	(234,56)	(230,24)	(229,47)	
L1D -231>	(3,7)	(6,20)	(0,18)	(231,9)	(4,2)	(-110,2)	(221,55)	(226,2)	(228,2)	(-10,1)	(-114,3)	(191,1)	(-64,6)	(395,89)	(284,12)	(-1,1)	
L1D -230>	(110,12)	(4,26)	(217,3)	(-8,20)	(229,35)	(0,22)	(221,19)	(218,7)	(230,10)	(2,5)	(-118,9)	(3,5)	(78,5)	(6,24)	(186,1)	(-114,2)	
L1D -229>	(217,7)	(220,11)	(-10,61)	(4,7)	(-64,7)	(444,1)	(221,12)	(229,17)	(-216,10)	(3,48)	(419,8)	(1,9)	(226,25)	(232,47)	(6,11)	(0,16)	
L1D -228>	(0,9)	(236,4)	(9,4)	(220,65)	(219,7)	(221,106)	(419,4)	(218,4)	(224,1)	(-111,4)	(228,19)	(296,7)	(429,7)	(300,2)	(292,2)	(6,5)	
L1D -227>	(1,10)	(113,3)	(3,55)	(224,116)	(227,36)	(4,4)	(89,5)	(230,5)	(6,5)	(-110,8)	(-64,2)	(-108,13)	(-102,2)	(-105,38)	(223,1)	(-106,14)	
L1D -226>	(0,37)	(89,12)	(224,73)	(236,3)	(1,5)	(5,41)	(223,72)	(229,7)	(-108,10)	(-5,4)	(219,26)	(6,20)	(68,1)	(226,25)	(3,98)	(218,2)	
L1D -225>	(0,25)	(1,20)	(-64,9)	(-13,31)	(-106,1)	(116,11)	(24,8)	(6,97)	(3,17)	(-117,2)	(242,7)	(-102,6)	(218,7)	(-111,2)	(-12,2)	(221,10)	
L1D -224>	(0,13)	(6,12)	(219,4)	(3,26)	(221,88)	(-110,8)	(-107,4)	(220,3)	(-108,1)	(-111,10)	(-248,11)	(-64,3)	(5,3)	(224,3)	(232,4)	(222,8)	
L1D -223>	(221,78)	(387,6)	(223,11)	(219,6)	(-64,8)	(3,17)	(1,3)	(0,7)	(-1,2)	(220,22)	(-111,2)	(2,2)	(6,34)	(5,7)	(227,5)	(-114,1)	
L1D -222>	(225,10)	(-64,1)	(6,92)	(-117,5)	(221,25)	(-118,2)	(219,10)	(-110,5)	(-2,4)	(220,5)	(208,4)	(224,6)	(222,9)	(117,2)	(1,2)	(3,12)	
L1D -221>	(6,9)	(110,2)	(0,16)	(221,89)	(3,5)	(-110,3)	(241,1)	(242,1)	(220,1)	(84,6)	(218,2)	(239,1)	(-111,8)	(111,1)	(-113,1)	(233,3)	
L1D -220>	(0,10)	(221,52)	(220,71)	(114,3)	(113,1)	(279,2)	(267,1)	(229,1)	(-8,1)	(233,3)	(-6,3)	(241,4)	(-107,1)	(262,1)	(6,5)	(273,2)	
L1D -219>	(270,3)	(234,3)	(220,49)	(219,76)	(279,2)	(259,7)	(245,2)	(248,3)	(108,3)	(276,7)	(3,2)	(6,4)	(238,1)	(271,2)	(114,3)	(239,4)	
L1D -218>	(219,84)	(218,87)	(245,19)	(270,4)	(254,4)	(-108,1)	(108,6)	(278,3)	(3,12)	(273,5)	(233,2)	(265,3)	(247,2)	(272,4)	(6,2)	(264,4)	
L1D -217>	(218,77)	(227,5)	(113,8)	(6,19)	(111,31)	(110,45)	(253,4)	(244,3)	(217,37)	(123,22)	(239,2)	(238,3)	(214,1)	(-248,9)	(232,3)	(234,1)	
L1D -216>	(217,24)	(114,3)	(6,8)	(216,36)	(214,2)	(0,6)	(110,18)	(111,72)	(-6,1)	(5,5)	(-11,6)	(-49,5)	(204,5)	(113,39)	(122,8)	(-256,2)	
L1D -215>	(215,103)	(111,25)	(6,21)	(121,28)	(0,16)	(-5,26)	(98,25)	(113,32)	(110,95)	(5,10)	(112,53)	(1,6)	(332,7)	(218,16)	(212,12)	(-11,1)	
L1D -214>	(120,16)	(0,25)	(6,70)	(-6,42)	(110,93)	(108,1)	(5,17)	(214,10)	(111,3)	(-5,18)	(3,5)	(409,2)	(213,5)	(1,37)	(-128,2)	(12,6)	
L1D -213>	(-5,88)	(119,29)	(-252,14)	(0,25)	(17,1)	(5,10)	(210,11)	(7,5)	(110,38)	(6,48)	(-6,77)	(213,101)	(11,22)	(108,3)	(111,35)	(-1,3)	
L1D -212>	(0,18)	(4,11)	(212,105)	(5,6)	(209,22)	(219,6)	(9,31)	(334,26)	(-6,39)	(105,9)	(110,6)	(-9,6)	(109,15)	(6,104)	(118,70)	(25,1)	
L1D -211>	(-1,1)	(-6,44)	(-10,18)	(1,7)	(117,53)	(-11,24)	(6,68)	(0,7)	(5,13)	(106,10)	(211,20)	(-21,11)	(209,18)	(-198,3)	(208,9)	(-5,13)	
L1D -210>	(210,48)	(110,14)	(107,79)	(0,6)	(116,31)	(82,4)	(326,1)	(-6,44)	(-2,9)	(6,15)	(334,9)	(-17,7)	(-5,4)	(105,40)	(11,3)	(-11,4)	
L1D -209>	(-6,90)	(6,107)	(209,10)	(11,13)	(115,10)	(-9,4)	(-11,27)	(0,10)	(224,4)	(-5,11)	(1,9)	(5,4)	(-25,1)	(4,3)	(8,4)	(-256,9)	
L1D -208>	(40,4)	(41,90)	(5,5)	(-264,1)	(9,6)	(-118,2)	(-64,0)	(0,0)	(114,9)	(-128,1)	(206,0)	(6,7)	(-6,0)	(-27,0)	(-12,0)	(-5,1)	
L1D -207>	(-6,57)	(40,34)	(9,122)	(-106,4)	(-64,36)	(6,31)	(-7,4)	(5,30)	(4,5)	(105,4)	(113,80)	(-35,1)	(-21,4)	(89,2)	(207,23)	(-4,2)	
L1D -206>	(-64,5)	(6,69)	(0,5)	(276,6)	(5,6)	(114,1)	(213,1)	(-6,11)	(206,34)	(-108,1)	(113,10)	(404,44)	(398,17)	(112,6)	(3,22)	(80,1)	
L1D -205>	(-6,92)	(-102,7)	(384,13)	(0,20)	(9,7)	(-5,38)	(204,28)	(5,30)	(6,14)	(313,1)	(-64,8)	(111,12)	(-149,21)	(404,117)	(185,11)	(205,18)	
L1D -204>	(5,20)	(207,6)	(15,5)	(6,46)	(-249,8)	(111,10)	(-4,50)	(203,14)	(201,2)	(11,8)	(0,50)	(-6,29)	(41,82)	(4,20)	(3,19)	(204,53)	
L1D -203>	(-3,1)	(331,1)	(41,82)	(2,1)	(0,1)	(5,13)	(40,52)	(203,0)	(4,13)	(113,0)	(110,1)	(6,3)	(109,2)	(9,83)	(111,1)	(202,0)	
L1D -202>	(4,28)	(-41,1)	(7,1)	(-37,1)	(-4,0)	(9,106)	(44,1)	(-5,0)	(-6,4)	(193,7)	(6,1)	(200,1)	(202,2)	(-16,3)	(5,1)	(83,0)	
L1D -201>	(-8,6)	(112,31)	(-1,16)	(63,10)	(69,10)	(208,13)	(107,1)	(201,50)	(204,22)	(6,119)	(11,39)	(-6,41)	(5,47)	(0,30)	(108,73)	(3,10)	
L1D -200>	(-6,21)	(40,15)	(41,6)	(-1,8)	(-64,15)	(200,22)	(209,11)	(-38,1)	(6,67)	(106,4)	(111,26)	(5,22)	(198,4)	(-9,7)	(-3,4)	(208,11)	
L1D -199>	(-18,1)	(5,64)	(7,1)	(41,21)	(110,0)	(9,0)	(-64,0)	(-37,0)	(199,0)	(-4,0)	(-40,2)	(198,0)	(40,0)	(356,0)	(0,0)	(151,0)	
L1D -198>	(109,10)	(104,2)	(40,72)	(-11,2)	(-55,1)	(-8,1)	(4,2)	(198,3)	(-5,22)	(1,2)	(-6,12)	(105,26)	(6,8)	(195,4)	(0,1)	(108,6)	
L1D -197>	(108,117)	(199,3)	(5,22)	(104,24)	(197,55)	(1,20)	(185,2)	(-64,3)	(377,8)	(-42,8)	(6,12)	(-67,1)	(-10,2)	(0,71)	(183,10)	(195,4)	
L1D -196>	(0,8)	(107,75)	(-6,18)	(-213,6)	(-50,1)	(196,29)	(110,50)	(3,37)	(-206,4)	(103,5)	(5,25)	(-197,5)	(49,2)	(111,2)	(1,11)	(-228,3)	
L1D -195>	(105,33)	(334,1)	(6,5)	(101,3)	(176,2)	(3,15)	(332,8)	(195,29)	(110,78)	(111,54)	(102,66)	(106,9)	(5,3)	(-6,18)	(1,18)	(-214,10)	
L1D -194>	(-64,4)	(6,24)	(5,45)	(107,1)	(194,15)	(105,36)	(1,6)	(111,41)	(0,10)	(108,5)	(83,3)	(9,16)	(3,2)	(41,67)	(18,2)	(110,3)	
L1D -193>	(329,12)	(193,13)	(17,1)	(9,3)	(13,111)	(-5,23)	(331,7)	(1,21)	(100,2)	(-6,4)	(-1,3)	(8,1)	(6,2)	(334,4)	(104,4)	(317,2)	
L1D -192>	(16,1)	(-6,48)	(192,65)	(102,20)	(5,23)	(329,25)	(-242,4)	(-47,10)	(-5,55)	(328,26)	(-3,32)	(154,14)	(108,15)	(0,13)	(155,4)	(107,33)	
L1D -191>	(191,72)	(-10,2)	(-6,49)	(329,5)	(309,3)	(-5,96)	(319,2)	(12,1)	(153,1)	(102,16)	(328,10)	(-3,7)	(105,4)	(5,4)	(108,4)	(7,1)	
L1D -190>	(152,122)	(153,30)	(190,9)	(-64,45)	(7,6)	(197,34)	(-67,1)	(-55,4)	(0,16)	(-6,27)	(9,7)	(1,9)	(5,20)	(-228,4)	(-232,11)	(-289,20)	
L1D -189>	(152,60)	(-172,3)	(151,72)	(84,1)	(5,74)	(-6,44)	(293,2)	(1,15)	(157,4)	(-9,9)	(75,6)	(-1,6)	(-64,4)	(-175,27)	(-225,9)	(204,5)	
L1D -188>	(2,24)	(151,94)	(150,69)	(-55,21)	(187,12)	(1,24)	(156,4)	(44,109)	(5,46)	(172,9)	(-32,8)	(190,16)	(0,41)	(-256,5)	(-197,6)	(-205,47)	
L1D -187>	(13,93)	(149,2)	(148,1)	(128,1)	(-64,6)	(59,3)	(-25,4)	(150,2)	(171,2)	(187,1)	(155,1)	(5,7)	(-206,2)	(54,1)	(-52,1)	(-5,2)	
L1D -186>	(213,11)	(148,32)	(186,50)	(5,17)	(-279,7)	(47,5)	(10,1)	(-206,17)	(60,4)	(1,11)	(185,23)	(-4,13)	(-5,23)	(-64,39)	(197,8)	(2,126)	
L1D -185>	(-279,10)	(-4,9)	(1,40)	(-72,12)	(185,35)	(-64,13)	(5,14)	(-158,5)	(-5,32)	(2,39)	(-8,93)	(-2,4)	(-139,5)	(8,1)	(7,33)	(153,10)	
L1D -184>	(8,23)	(-6,23)	(183,15)	(-5,56)	(2,102)	(-19,1)	(0,8)	(-64,60)	(6,16)	(-216,31)	(184,30)	(1,33)	(-205,21)	(7,35)	(-224,12)	(5,44)	
L1D -183>	(6,15)	(-1,6)	(-5,38)	(-289,110)	(183,50)	(-55,2)	(-18,7)	(1,13)	(5,28)	(-6,12)	(7,45)	(182,7)	(-276,11)	(-273,4)	(197,9)	(2,95)	
L1D -182>	(-19,19)	(163,108)	(-9,3)	(2,14)	(-31,2)	(1,14)	(-5,18)	(182,5)	(6,8)	(-27,1)	(7,5)	(-64,2)	(176,1)	(-15,13)	(5,4)	(8,1)	
L1D -181>	(-8,2)	(186,1)	(-5,29)	(-1,2)	(-272,2)	(1,13)	(0,11)	(7,13)	(5,4)	(6,9)	(-64,115)	(175,2)	(181,7)	(2,33)	(-4,2)	(-264,7)	
L1D -180>	(163,2)	(7,6)	(-5,30)	(180,11)	(2,14)	(-4,3)	(164,1)	(-197,16)	(5,10)	(1,6)	(-26,3)	(-14,2)	(0,2)	(13,126)	(-192,3)	(-284,10)	
L1D -179>	(-5,78)	(-206,2)	(179,46)	(1,43)	(7,24)	(51,4)	(-6,3)	(2,65)	(6,6)	(163,7)	(-4,10)	(5,27)	(175,9)	(-64,32)	(174,10)	(4,1)	
L1D -178>	(2,39)	(-5,41)	(50,3)	(171,1)	(-1,3)	(163,124)	(174,4)	(-275,2)	(1,22)	(128,6)	(6,5)	(178,31)	(5,9)	(-72,3)	(175,7)	(-4,13)	
L1D -177>	(2,54)	(-1,7)	(-5,113)	(1,59)	(5,15)	(-64,43)	(0,3)	(7,12)	(49,7)	(-39,3)	(-35,1)	(177,41)	(163,11)	(175,14)	(-4,9)	(171,5)	
L1D -176>	(1,20)	(61,7)	(112,57)	(60,19)	(175,77)	(-64,1)	(2,5)	(-5,28)	(53,5)	(300,5)	(176,11)	(177,49)	(62,3)	(59,5)	(41,5)	(49,10)	
L1D -175>	(-19,1)	(-1,82)	(-5,106)	(1,58)	(178,11)	(175,55)	(-64,84)	(6,8)	(5,14)	(171,2)	(-78,7)	(2,71)	(-4,11)	(7,9)	(0,4)	(176,3)	
L1D -174>	(-279,25)	(-4,11)	(-5,118)	(175,42)	(174,91)	(-263,9)	(13,35)	(6,1)	(5,17)	(1,69)	(7,16)	(2,70)	(163,68)	(-2,15)	(-287,30)	(178,43)	
L1D -173>	(-5,104)	(173,84)	(66,1)	(174,24)	(1,68)	(2,80)	(0,4)	(6,13)	(7,26)	(5,47)	(-1,3)	(-64,16)	(-4,17)	(-195,7)	(-207,3)	(316,14)	
L1D -172>	(175,1)	(2,67)	(48,7)	(0,10)	(-5,122)	(5,64)	(9,33)	(-64,71)	(1,79)	(171,4)	(7,49)	(-4,16)	(172,73)	(-1,4)	(6,25)	(190,2)	
L1D -171>	(0,17)	(175,1)	(171,77)	(-5,79)	(10,2)	(6,44)	(-64,5)	(-1,6)	(7,26)	(1,108)	(51,13)	(5,53)	(170,38)	(172,28)	(-4,16)	(2,68)	
L1D -170>	(170,51)	(-4,13)	(172,6)	(179,1)	(-5,90)	(171,4)	(6,20)	(5,30)	(-1,14)	(169,30)	(174,2)	(1,111)	(10,1)	(7,1)	(-64,9)	(2,86)	
L1D -169>	(-5,48)	(-1,4)	(170,5)	(169,21)	(1,78)	(175,1)	(171,3)	(2,24)	(-22,1)	(-6,2)	(6,2)	(-30,4)	(-46,2)	(5,11)	(7,2)	(-4,5)	
L1D -168>	(-35,1)	(-5,38)	(169,4)	(0,1)	(1,65)	(168,19)	(175,0)	(-1,0)	(6,3)	(173,0)	(9,14)	(-7,0)	(2,22)	(-64,1)	(-4,2)	(5,0)	
L1D -167>	(10,2)	(1,75)	(167,23)	(-50,5)	(20,1)	(40,2)	(-47,5)	(-5,46)	(2,11)	(-34,1)	(9,19)	(169,2)	(-42,3)	(175,3)	(-18,3)	(-4,3)	
L1D -166>	(-43,6)	(1,82)	(-47,2)	(-5,41)	(-19,1)	(-35,8)	(-271,1)	(-51,7)	(-287,3)	(166,19)	(2,24)	(-45,1)	(-280,1)	(167,4)	(-4,3)	(-1,1)	
L1D -165>	(18,1)	(166,3)	(-5,53)	(10,12)	(154,1)	(1,101)	(72,5)	(-9,3)	(2,36)	(165,28)	(167,4)	(-192,1)	(-45,1)	(-4,5)	(0,1)	(187,1)	
L1D -164>	(-12,6)	(-218,2)	(-5,49)	(-215,7)	(165,4)	(-3,5)	(1,69)	(2,59)	(164,97)	(-231,37)	(-16,2)	(-223,3)	(188,1)	(21,1)	(-6,4)	(-4,60)	
L1D -163>	(9,102)	(186,14)	(40,15)	(185,2)	(-218,3)	(187,8)	(153,3)	(190,1)	(191,3)	(1,5)	(58,2)	(0,5)	(-3,1)	(61,4)	(4,1)	(163,3)	
L1D -162>	(185,1)	(56,4)	(4,80)	(9,58)	(187,1)	(189,1)	(59,5)	(-4,10)	(0,2)	(-9,8)	(191,1)	(1,10)	(152,14)	(198,1)	(40,10)	(24,1)	
L1D -161>	(183,1)	(9,4)	(27,2)	(202,1)	(21,3)	(20,2)	(1,70)	(44,1)	(181,4)	(163,3)	(5,7)	(162,4)	(128,1)	(175,1)	(161,2)	(-15,1)	
L1D -160>	(-64,6)	(5,6)	(0,10)	(9,6)	(-9,2)	(1,87)	(-275,2)	(128,3)	(-235,2)	(7,3)	(-187,2)	(160,5)	(121,6)	(14,1)	(21,3)	(181,3)	
L1D -159>	(21,3)	(5,25)	(41,119)	(-35,2)	(158,27)	(168,10)	(160,2)	(161,2)	(175,1)	(4,1)	(-3,3)	(1,65)	(157,2)	(40,1)	(-10,1)	(34,1)	
L1D -158>	(-3,28)	(13,1)	(-39,7)	(-4,1)	(-1,1)	(5,102)	(162,40)	(40,77)	(21,4)	(-303,0)	(1,34)	(0,9)	(10,0)	(3,0)	(174,0)	(41,14)	
L1D -157>	(24,2)	(7,4)	(27,3)	(1,90)	(-10,1)	(-9,5)	(-128,6)	(10,4)	(4,2)	(13,1)	(21,1)	(8,1)	(-2,1)	(2,1)	(-16,0)	(-4,0)	
L1D -156>	(-128,6)	(16,7)	(-10,5)	(10,69)	(2,1)	(-64,7)	(6,3)	(0,5)	(28,3)	(64,10)	(203,2)	(-8,17)	(24,2)	(-1,10)	(1,112)	(177,2)	
L1D -155>	(-1,15)	(1,19)	(157,15)	(5,71)	(-20,1)	(-7,12)	(9,3)	(10,110)	(2,4)	(44,3)	(3,3)	(151,2)	(-128,10)	(-8,52)	(-6,3)	(7,11)	
L1D -154>	(174,1)	(-3,3)	(94,21)	(41,75)	(153,3)	(2,1)	(25,1)	(144,1)	(9,17)	(10,37)	(92,4)	(152,3)	(5,53)	(7,3)	(93,12)	(151,1)	
L1D -153>	(9,5)	(93,56)	(-8,5)	(155,12)	(0,15)	(7,6)	(163,108)	(13,3)	(10,120)	(-4,4)	(-139,17)	(2,12)	(158,9)	(-12,1)	(137,3)	(24,17)	
L1D -152>	(92,27)	(10,99)	(7,7)	(2,24)	(-43,2)	(0,9)	(151,3)	(-35,5)	(-1,3)	(-64,3)	(93,20)	(24,12)	(-3,23)	(-292,13)	(-13,6)	(-7,2)	
L1D -151>	(91,11)	(-1,7)	(-309,7)	(2,39)	(-8,9)	(148,10)	(152,3)	(-11,5)	(0,12)	(-4,6)	(-19,9)	(-20,3)	(4,53)	(24,1)	(-132,3)	(-26,2)	
L1D -150>	(90,26)	(1,31)	(149,93)	(-19,16)	(4,45)	(0,31)	(3,25)	(-6,109)	(-2,1)	(-1,30)	(16,34)	(324,11)	(-64,21)	(7,63)	(-4,30)	(13,47)	
L1D -149>	(0,113)	(48,1)	(136,6)	(1,117)	(128,10)	(-5,7)	(6,8)	(-50,6)	(7,41)	(8,36)	(14,10)	(-10,25)	(-19,25)	(2,8)	(-20,11)	(-139,4)	
L1D -148>	(-128,84)	(147,32)	(0,22)	(-10,13)	(148,26)	(56,84)	(146,12)	(-139,12)	(83,1)	(-19,21)	(-20,8)	(-15,13)	(7,29)	(1,48)	(-3,5)	(90,6)	
L1D -147>	(64,11)	(146,5)	(1,27)	(-23,5)	(147,1)	(5,116)	(-64,21)	(-19,50)	(-2,15)	(11,17)	(-128,12)	(7,61)	(-20,30)	(132,46)	(0,34)	(8,23)	
L1D -146>	(-64,3)	(145,116)	(0,11)	(147,7)	(104,23)	(-35,1)	(154,2)	(1,19)	(-1,2)	(7,3)	(9,8)	(103,3)	(-19,3)	(148,1)	(-4,1)	(-3,7)	
L1D -145>	(-8,1)	(56,4)	(64,5)	(103,49)	(-27,9)	(0,64)	(8,16)	(7,13)	(4,8)	(-2,12)	(-19,73)	(-13,13)	(-20,59)	(-1,9)	(144,3)	(-16,40)	
L1D -144>	(-24,1)	(102,39)	(133,7)	(-19,72)	(-9,38)	(144,18)	(-64,17)	(67,4)	(-15,10)	(6,5)	(0,58)	(-16,32)	(-63,22)	(143,24)	(104,7)	(-20,75)	
L1D -143>	(-1,39)	(-59,5)	(0,74)	(-20,43)	(-16,10)	(-9,1)	(143,5)	(-61,23)	(-19,44)	(1,4)	(24,2)	(8,26)	(104,2)	(-14,2)	(-5,6)	(5,3)	
L1D -142>	(100,29)	(136,95)	(0,27)	(-19,75)	(144,5)	(-7,4)	(-1,27)	(137,34)	(-20,83)	(47,7)	(-16,44)	(7,39)	(-5,6)	(141,6)	(18,1)	(98,11)	
L1D -141>	(1,88)	(2,37)	(-16,50)	(-8,18)	(-128,9)	(99,9)	(136,22)	(16,8)	(0,64)	(-19,64)	(8,6)	(139,41)	(97,1)	(-22,9)	(-20,80)	(137,17)	
L1D -140>	(133,13)	(134,16)	(2,44)	(135,10)	(-16,32)	(-10,27)	(137,35)	(0,63)	(-19,86)	(-20,72)	(11,88)	(-64,28)	(-17,74)	(1,24)	(8,76)	(-5,1)	
L1D -139>	(-10,4)	(4,4)	(8,9)	(-128,10)	(-15,16)	(-4,6)	(0,4)	(-16,9)	(-1,116)	(10,4)	(-5,6)	(-20,8)	(1,1)	(-19,10)	(2,5)	(133,4)	
L1D -138>	(137,35)	(135,32)	(-1,25)	(5,7)	(138,28)	(136,52)	(2,20)	(-59,10)	(139,51)	(0,4)	(140,64)	(51,1)	(133,11)	(143,24)	(142,10)	(-19,24)	
L1D -137>	(0,18)	(2,68)	(4,6)	(1,10)	(133,26)	(-22,2)	(-149,1)	(138,52)	(139,40)	(8,10)	(-19,76)	(137,21)	(-20,40)	(140,47)	(-16,25)	(-3,5)	
L1D -136>	(2,14)	(136,11)	(-19,14)	(1,7)	(135,2)	(-16,7)	(4,9)	(139,5)	(144,24)	(44,11)	(134,7)	(16,80)	(-20,16)	(-195,1)	(0,3)	(137,1)	
L1D -135>	(15,10)	(219,9)	(2,84)	(-93,5)	(-8,22)	(133,29)	(-1,13)	(137,29)	(0,37)	(-19,85)	(-190,2)	(-3,6)	(-20,82)	(134,11)	(135,26)	(-16,30)	
L1D -134>	(-19,93)	(2,53)	(218,27)	(-16,33)	(133,91)	(132,48)	(13,31)	(134,1)	(-1,54)	(92,59)	(8,11)	(-3,9)	(-20,111)	(-4,9)	(219,10)	(0,34)	
L1D -133>	(91,4)	(-19,5)	(132,88)	(133,12)	(130,81)	(0,3)	(-20,8)	(218,3)	(1,17)	(8,3)	(-16,4)	(13,7)	(2,2)	(51,1)	(52,3)	(129,1)	
L1D -132>	(122,3)	(18,1)	(-19,47)	(133,10)	(218,4)	(-16,11)	(132,65)	(2,3)	(0,9)	(217,9)	(19,1)	(-2,2)	(-20,29)	(8,32)	(-8,1)	(130,15)	
L1D -131>	(1,16)	(-48,1)	(4,8)	(130,9)	(133,9)	(-59,2)	(9,7)	(-27,4)	(-20,125)	(146,6)	(89,12)	(-16,43)	(217,35)	(129,8)	(-8,3)	(216,5)	
L1D -130>	(132,28)	(130,13)	(218,9)	(-10,57)	(-20,78)	(-128,7)	(216,25)	(-64,3)	(-16,30)	(85,1)	(-63,4)	(-40,12)	(125,7)	(131,4)	(-14,9)	(0,4)	
L1D -129>	(80,9)	(-149,8)	(0,21)	(9,3)	(72,7)	(131,4)	(21,5)	(132,4)	(144,1)	(129,112)	(-16,25)	(-64,5)	(85,3)	(-1,7)	(-8,2)	(217,4)	
L1D -128>	(16,21)	(0,18)	(8,19)	(24,8)	(17,5)	(276,35)	(267,23)	(9,13)	(-8,8)	(128,98)	(23,15)	(-1,11)	(-40,1)	(15,6)	(7,42)	(6,22)	
L1D -127>	(41,109)	(40,19)	(5,19)	(4,2)	(127,7)	(132,8)	(83,2)	(9,38)	(130,3)	(113,5)	(0,4)	(218,18)	(134,3)	(145,2)	(-198,1)	(-11,3)	
L1D -126>	(0,4)	(4,93)	(-1,5)	(126,4)	(220,60)	(134,2)	(-27,36)	(127,5)	(-8,4)	(84,23)	(125,9)	(9,21)	(217,4)	(124,5)	(349,2)	(132,1)	
L1D -125>	(-8,3)	(126,3)	(254,1)	(81,1)	(124,5)	(76,1)	(127,1)	(4,6)	(125,3)	(2,1)	(219,4)	(-1,3)	(122,3)	(123,3)	(0,0)	(8,83)	
L1D -124>	(1,10)	(218,45)	(0,5)	(-3,2)	(125,27)	(8,98)	(2,2)	(82,14)	(137,3)	(122,3)	(124,11)	(107,3)	(-44,3)	(217,1)	(120,1)	(-1,12)	
L1D -123>	(123,100)	(121,5)	(0,12)	(217,12)	(131,1)	(4,36)	(-1,14)	(-72,4)	(-7,21)	(3,15)	(41,36)	(1,10)	(-5,4)	(110,56)	(111,9)	(81,12)	
L1D -122>	(9,25)	(216,2)	(111,5)	(122,5)	(5,109)	(41,7)	(121,3)	(132,6)	(125,4)	(130,10)	(0,6)	(4,5)	(6,5)	(40,77)	(-3,5)	(134,1)	
L1D -121>	(111,1)	(123,2)	(4,45)	(122,3)	(112,13)	(79,4)	(118,1)	(9,57)	(-3,2)	(120,2)	(64,1)	(-4,112)	(121,11)	(81,1)	(215,2)	(14,1)	
L1D -120>	(0,12)	(120,13)	(-14,13)	(214,2)	(4,2)	(2,8)	(117,1)	(-6,2)	(128,2)	(-16,78)	(-25,2)	(3,4)	(111,3)	(-24,5)	(1,8)	(328,1)	
L1D -119>	(5,54)	(3,33)	(213,46)	(120,24)	(110,78)	(-8,4)	(119,125)	(1,43)	(64,16)	(2,44)	(4,1)	(111,35)	(-4,66)	(117,24)	(0,80)	(-1,22)	
L1D -118>	(118,55)	(115,11)	(2,14)	(217,1)	(116,21)	(212,8)	(64,5)	(326,4)	(41,89)	(5,14)	(117,28)	(114,15)	(105,7)	(1,9)	(76,15)	(-1,31)	
L1D -117>	(117,102)	(111,8)	(134,1)	(35,39)	(-3,23)	(3,8)	(0,9)	(1,19)	(328,4)	(108,4)	(113,7)	(5,14)	(107,3)	(40,18)	(-2,9)	(-39,14)	
L1D -116>	(116,71)	(-8,32)	(112,10)	(220,1)	(113,53)	(110,78)	(-1,10)	(219,52)	(111,35)	(3,55)	(115,14)	(0,3)	(218,12)	(210,21)	(2,19)	(107,27)	
L1D -115>	(64,5)	(218,58)	(105,6)	(-105,14)	(112,83)	(116,41)	(3,22)	(0,31)	(115,82)	(2,6)	(-1,13)	(217,15)	(5,6)	(118,1)	(209,20)	(113,40)	
L1D -114>	(114,95)	(-1,1)	(-6,18)	(3,30)	(219,7)	(218,20)	(0,11)	(-5,6)	(110,39)	(1,11)	(111,63)	(108,22)	(105,9)	(208,18)	(329,14)	(198,6)	
L1D -113>	(332,1)	(113,99)	(0,13)	(119,6)	(2,13)	(3,14)	(110,65)	(105,13)	(41,20)	(108,27)	(84,28)	(217,13)	(218,14)	(111,36)	(5,16)	(207,9)	
L1D -112>	(3,16)	(1,11)	(64,53)	(112,82)	(0,7)	(206,4)	(-5,105)	(113,42)	(-6,8)	(108,31)	(110,46)	(217,20)	(-1,6)	(-56,1)	(218,19)	(216,11)	
L1D -111>	(329,19)	(111,106)	(-5,31)	(3,14)	(0,38)	(216,28)	(200,5)	(332,19)	(110,14)	(107,5)	(-2,11)	(221,16)	(442,1)	(-6,13)	(105,13)	(-3,13)	
L1D -110>	(105,1)	(0,10)	(213,2)	(331,15)	(332,5)	(113,6)	(328,8)	(116,7)	(217,7)	(110,70)	(3,8)	(111,16)	(107,7)	(-8,7)	(2,5)	(-3,10)	
L1D -109>	(329,7)	(111,22)	(109,117)	(198,12)	(-5,17)	(-8,30)	(110,13)	(212,21)	(193,27)	(120,6)	(105,19)	(113,23)	(216,69)	(0,23)	(3,29)	(217,2)	
L1D -108>	(114,18)	(193,8)	(-5,47)	(0,11)	(118,11)	(111,20)	(121,4)	(113,11)	(108,89)	(212,1)	(110,37)	(191,8)	(117,6)	(192,18)	(105,16)	(-6,68)	
L1D -107>	(331,5)	(110,57)	(107,53)	(111,39)	(193,39)	(-109,2)	(200,21)	(65,67)	(120,21)	(13,11)	(3,7)	(0,6)	(113,17)	(212,13)	(192,17)	(108,3)	
L1D -106>	(-5,8)	(106,49)	(-110,10)	(0,15)	(12,14)	(-24,1)	(3,31)	(1,71)	(102,27)	(105,13)	(111,29)	(-109,29)	(117,20)	(195,31)	(110,21)	(-6,10)	
L1D -105>	(0,20)	(7,62)	(-1,45)	(64,8)	(-3,1)	(221,34)	(-5,97)	(114,117)	(110,32)	(111,87)	(194,19)	(198,12)	(105,111)	(-6,9)	(1,8)	(-111,34)	
L1D -104>	(221,1)	(193,116)	(64,28)	(-5,11)	(218,22)	(-1,22)	(-6,8)	(113,51)	(0,7)	(108,35)	(9,10)	(10,17)	(104,83)	(2,10)	(-113,20)	(-112,14)	
L1D -103>	(0,29)	(-5,38)	(219,81)	(192,126)	(-1,113)	(-112,10)	(63,1)	(-6,6)	(64,14)	(15,46)	(218,25)	(-113,25)	(-16,7)	(-109,7)	(-114,12)	(103,21)	
L1D -102>	(191,93)	(102,14)	(-6,21)	(110,30)	(-114,14)	(-3,8)	(-5,86)	(-2,1)	(192,23)	(103,4)	(0,6)	(111,23)	(64,24)	(9,2)	(-1,16)	(-16,7)	
L1D -101>	(102,46)	(-2,10)	(68,94)	(-1,46)	(1,8)	(142,7)	(105,10)	(0,36)	(-115,27)	(101,59)	(-3,13)	(111,27)	(64,18)	(-16,5)	(145,22)	(-264,1)	
L1D -100>	(-7,1)	(0,11)	(-117,14)	(11,5)	(-4,69)	(-5,7)	(193,19)	(141,4)	(6,9)	(16,10)	(100,5)	(145,6)	(24,3)	(-116,21)	(-115,4)	(1,11)	
L1D -99>	(-4,74)	(-114,16)	(-9,46)	(192,122)	(107,1)	(113,9)	(141,11)	(101,40)	(0,17)	(12,3)	(103,9)	(-5,32)	(142,7)	(11,10)	(99,24)	(220,14)	
L1D -98>	(0,39)	(12,5)	(-119,61)	(1,6)	(192,19)	(-1,1)	(124,3)	(141,14)	(33,5)	(145,6)	(-9,12)	(-18,3)	(4,8)	(92,17)	(-118,21)	(191,28)	
L1D -97>	(1,38)	(95,16)	(-26,7)	(8,90)	(9,3)	(-35,10)	(88,7)	(103,1)	(101,5)	(-120,15)	(-1,32)	(-119,11)	(54,5)	(-7,31)	(102,3)	(98,2)	
L1D -96>	(-29,3)	(17,42)	(224,5)	(-16,1)	(-8,15)	(99,4)	(-7,3)	(100,8)	(98,5)	(-4,31)	(88,7)	(-1,4)	(64,11)	(96,4)	(1,65)	(146,5)	
L1D -95>	(99,96)	(1,2)	(97,9)	(-3,3)	(9,4)	(91,2)	(95,2)	(4,4)	(146,1)	(11,30)	(0,24)	(150,37)	(64,122)	(32,1)	(54,2)	(-1,7)	
L1D -94>	(-118,32)	(210,22)	(0,8)	(-121,25)	(-123,15)	(-120,17)	(1,59)	(209,46)	(208,31)	(211,104)	(217,39)	(52,34)	(-264,1)	(-110,14)	(218,45)	(51,61)	
L1D -93>	(94,74)	(51,27)	(-108,51)	(-2,84)	(9,9)	(0,31)	(64,13)	(221,5)	(-111,3)	(90,7)	(146,1)	(93,15)	(-100,4)	(-124,2)	(92,4)	(144,4)	
L1D -92>	(91,14)	(0,33)	(51,30)	(93,47)	(135,4)	(90,110)	(150,8)	(95,34)	(50,35)	(-124,24)	(64,7)	(151,10)	(145,1)	(130,10)	(132,23)	(133,9)	
L1D -91>	(64,13)	(0,1)	(-106,1)	(-124,4)	(8,102)	(132,1)	(84,1)	(1,3)	(46,1)	(-3,3)	(-7,3)	(93,1)	(2,2)	(51,2)	(45,1)	(96,1)	
L1D -90>	(223,7)	(-1,6)	(-4,1)	(-127,13)	(80,3)	(93,21)	(224,3)	(9,3)	(0,7)	(-105,4)	(-108,5)	(90,4)	(210,6)	(-8,98)	(133,6)	(6,6)	
L1D -89>	(0,4)	(-112,61)	(-104,51)	(89,60)	(220,64)	(203,1)	(80,109)	(42,8)	(84,31)	(9,8)	(64,6)	(227,20)	(4,8)	(223,13)	(94,10)	(-108,26)	
L1D -88>	(1,13)	(-9,123)	(-16,2)	(-10,1)	(133,2)	(89,1)	(91,1)	(0,14)	(94,2)	(-8,10)	(123,2)	(92,1)	(84,1)	(-129,1)	(131,1)	(64,35)	
L1D -87>	(0,34)	(146,1)	(94,5)	(134,6)	(-116,7)	(145,8)	(224,52)	(80,19)	(130,12)	(88,50)	(1,45)	(64,63)	(8,18)	(-1,5)	(221,14)	(51,7)	
L1D -86>	(129,1)	(84,1)	(5,0)	(41,98)	(130,0)	(1,1)	(86,0)	(119,0)	(88,0)	(-4,2)	(-130,0)	(134,0)	(40,37)	(7,0)	(-131,0)	(94,0)	
L1D -85>	(-108,17)	(219,13)	(4,117)	(221,1)	(59,2)	(64,2)	(218,3)	(146,2)	(129,5)	(-130,10)	(-131,11)	(-280,2)	(77,2)	(1,4)	(90,2)	(-132,5)	
L1D -84>	(-132,1)	(-108,10)	(-109,23)	(218,36)	(84,66)	(221,5)	(212,3)	(85,7)	(0,18)	(125,17)	(-133,47)	(146,19)	(-1,15)	(-9,119)	(72,6)	(226,4)	
L1D -83>	(40,9)	(72,60)	(82,109)	(1,76)	(5,79)	(209,10)	(124,30)	(-1,39)	(84,29)	(9,32)	(0,47)	(138,74)	(144,11)	(127,1)	(-111,35)	(154,21)	
L1D -82>	(-3,113)	(83,1)	(2,6)	(123,1)	(5,2)	(134,2)	(74,3)	(4,1)	(9,1)	(66,3)	(1,2)	(80,1)	(8,28)	(127,1)	(103,1)	(-1,2)	
L1D -81>	(-4,6)	(79,1)	(5,0)	(4,8)	(78,1)	(-13,0)	(72,31)	(94,0)	(-48,0)	(81,0)	(82,1)	(117,1)	(-1,1)	(9,65)	(-9,0)	(77,0)	
L1D -80>	(5,3)	(0,6)	(9,2)	(31,3)	(84,62)	(6,6)	(4,1)	(125,3)	(64,64)	(208,1)	(-93,0)	(82,1)	(154,0)	(77,1)	(54,0)	(81,1)	
L1D -79>	(37,1)	(76,1)	(0,2)	(19,1)	(83,25)	(78,3)	(64,67)	(-2,20)	(-5,1)	(1,3)	(-1,6)	(77,3)	(81,1)	(111,6)	(124,1)	(125,0)	
L1D -78>	(9,1)	(2,8)	(1,72)	(-3,36)	(5,1)	(122,0)	(-6,1)	(-280,0)	(-8,0)	(-1,11)	(154,0)	(100,0)	(50,0)	(75,2)	(73,0)	(80,7)	
L1D -77>	(79,4)	(-39,14)	(68,1)	(-9,10)	(1,5)	(5,3)	(82,1)	(14,14)	(81,3)	(2,12)	(0,9)	(40,10)	(-4,81)	(73,2)	(78,4)	(-1,8)	
L1D -76>	(2,9)	(-1,59)	(154,5)	(12,3)	(129,109)	(77,8)	(76,18)	(10,3)	(146,1)	(64,8)	(0,42)	(188,2)	(50,4)	(75,41)	(73,41)	(74,9)	
L1D -75>	(84,99)	(2,32)	(263,1)	(18,28)	(1,8)	(64,40)	(75,34)	(77,17)	(44,11)	(129,38)	(0,30)	(72,4)	(61,12)	(130,5)	(9,2)	(-1,12)	
L1D -74>	(4,6)	(84,1)	(-3,75)	(-2,48)	(13,3)	(61,4)	(69,13)	(0,8)	(43,2)	(111,17)	(75,47)	(73,6)	(32,30)	(74,15)	(129,15)	(1,8)	
L1D -73>	(64,68)	(0,39)	(9,31)	(-2,89)	(1,87)	(192,7)	(116,34)	(-1,94)	(130,25)	(14,37)	(74,11)	(76,9)	(128,1)	(91,2)	(24,20)	(129,123)	
L1D -72>	(64,108)	(129,32)	(-2,3)	(72,3)	(0,7)	(2,1)	(-1,7)	(83,1)	(1,21)	(117,1)	(76,3)	(6,1)	(12,1)	(257,4)	(67,2)	(321,1)	
L1D -71>	(-3,56)	(75,1)	(-4,1)	(1,92)	(0,1)	(73,1)	(65,18)	(-6,3)	(-197,1)	(132,0)	(-36,0)	(-1,3)	(130,11)	(-5,0)	(21,0)	(-10,1)	
L1D -70>	(1,1)	(73,1)	(-7,27)	(7,1)	(72,1)	(129,121)	(0,26)	(-1,13)	(64,0)	(97,0)	(21,0)	(-2,1)	(-3,5)	(69,1)	(25,1)	(132,1)	
L1D -69>	(-1,124)	(94,3)	(132,6)	(66,3)	(1,71)	(69,19)	(21,1)	(73,8)	(0,24)	(72,16)	(27,12)	(43,17)	(-19,2)	(74,10)	(-14,9)	(128,11)	
L1D -68>	(61,1)	(72,65)	(-1,0)	(94,0)	(75,1)	(-2,4)	(26,3)	(17,0)	(64,0)	(-3,16)	(66,1)	(42,2)	(-8,0)	(-4,1)	(69,0)	(43,1)	
L1D -67>	(2,35)	(-3,45)	(-15,6)	(-1,66)	(-6,17)	(0,18)	(25,1)	(264,1)	(66,3)	(1,15)	(15,8)	(49,4)	(69,32)	(-248,1)	(42,1)	(122,8)	
L1D -66>	(-6,1)	(72,3)	(25,1)	(24,5)	(94,1)	(62,1)	(21,4)	(6,2)	(63,1)	(-7,108)	(73,16)	(43,5)	(61,1)	(65,1)	(-4,1)	(-8,1)	
L1D -65>	(64,64)	(13,12)	(60,0)	(1,39)	(-7,6)	(-8,2)	(-248,2)	(6,6)	(23,12)	(66,4)	(31,6)	(43,11)	(70,3)	(2,18)	(107,5)	(127,2)	
L1D -64>	(73,13)	(248,8)	(72,65)	(1,42)	(0,20)	(128,1)	(64,34)	(66,5)	(280,1)	(-64,30)	(368,2)	(15,3)	(232,32)	(75,21)	(74,30)	(68,12)	
L1D -63>	(0,7)	(-16,4)	(64,56)	(-1,32)	(63,4)	(60,6)	(58,1)	(62,11)	(191,26)	(-87,4)	(21,26)	(12,19)	(3,5)	(43,39)	(5,5)	(1,109)	
L1D -62>	(53,1)	(2,79)	(-1,6)	(60,1)	(48,1)	(20,5)	(-2,25)	(62,62)	(-92,1)	(43,3)	(56,7)	(1,8)	(0,3)	(-70,1)	(59,1)	(64,1)	
L1D -61>	(53,1)	(-218,1)	(58,109)	(1,6)	(-93,1)	(43,3)	(-3,4)	(57,1)	(60,2)	(-72,1)	(48,1)	(12,14)	(19,12)	(64,9)	(5,12)	(59,8)	
L1D -60>	(43,13)	(62,66)	(5,9)	(-3,21)	(55,13)	(0,80)	(8,10)	(57,35)	(64,50)	(61,50)	(59,56)	(63,47)	(1,2)	(-2,48)	(60,7)	(67,13)	
L1D -59>	(34,3)	(48,36)	(42,10)	(63,24)	(17,42)	(0,50)	(112,81)	(-8,15)	(1,68)	(59,1)	(60,22)	(64,28)	(58,31)	(-1,27)	(-10,31)	(57,12)	
L1D -58>	(16,34)	(-2,104)	(64,36)	(12,10)	(0,5)	(1,7)	(-4,3)	(47,15)	(43,5)	(59,11)	(-6,19)	(56,6)	(-5,1)	(44,7)	(-8,5)	(2,80)	
L1D -57>	(1,13)	(57,91)	(47,55)	(2,12)	(64,106)	(-1,85)	(-72,125)	(55,54)	(9,15)	(42,21)	(59,1)	(-218,4)	(61,57)	(46,35)	(0,10)	(-2,36)	
L1D -56>	(4,2)	(1,4)	(64,34)	(46,4)	(56,4)	(31,2)	(55,2)	(-2,102)	(66,2)	(388,2)	(112,18)	(43,3)	(54,6)	(-4,3)	(168,1)	(-73,3)	
L1D -55>	(-2,127)	(13,29)	(57,4)	(53,12)	(43,20)	(380,5)	(55,23)	(40,13)	(64,5)	(0,7)	(1,35)	(-1,9)	(46,3)	(32,6)	(-4,1)	(42,11)	
L1D -54>	(1,70)	(31,34)	(60,1)	(43,28)	(99,2)	(14,18)	(0,8)	(42,8)	(-75,10)	(64,15)	(4,16)	(107,2)	(54,14)	(-84,24)	(39,71)	(-5,8)	
L1D -53>	(-77,9)	(62,48)	(53,36)	(0,32)	(-76,93)	(1,57)	(60,18)	(43,18)	(10,31)	(42,78)	(4,52)	(51,43)	(-84,1)	(-3,25)	(11,44)	(45,7)	
L1D -52>	(43,18)	(62,14)	(51,32)	(-7,101)	(42,28)	(12,7)	(-85,1)	(-1,42)	(5,22)	(64,84)	(1,26)	(10,75)	(50,41)	(41,20)	(0,6)	(92,10)	
L1D -51>	(-8,87)	(-248,5)	(53,6)	(30,16)	(1,10)	(-2,9)	(-1,42)	(56,4)	(-4,8)	(0,8)	(40,1)	(-34,4)	(28,13)	(46,5)	(36,22)	(49,37)	
L1D -50>	(-9,16)	(8,4)	(1,14)	(-5,12)	(29,3)	(14,73)	(31,8)	(-3,45)	(3,21)	(51,12)	(50,15)	(-2,5)	(-1,7)	(49,5)	(35,11)	(5,1)	
L1D -49>	(39,17)	(2,46)	(49,66)	(50,7)	(-1,7)	(64,25)	(30,12)	(-218,12)	(-10,120)	(44,20)	(1,38)	(4,9)	(0,15)	(43,43)	(47,20)	(210,1)	
L1D -48>	(-9,123)	(64,2)	(2,1)	(56,2)	(55,1)	(112,4)	(46,1)	(0,2)	(40,1)	(48,8)	(4,1)	(-10,3)	(6,2)	(1,2)	(15,1)	(53,15)	
L1D -47>	(43,6)	(0,100)	(-2,2)	(2,28)	(57,7)	(45,3)	(1,8)	(46,1)	(35,1)	(34,1)	(64,1)	(47,10)	(3,3)	(42,4)	(41,1)	(49,1)	
L1D -46>	(40,5)	(41,30)	(-3,92)	(1,41)	(4,2)	(-1,25)	(-7,1)	(-5,4)	(56,1)	(46,3)	(-13,6)	(-219,2)	(9,1)	(42,1)	(-4,1)	(44,3)	
L1D -45>	(9,23)	(50,58)	(5,22)	(-5,71)	(-2,42)	(26,23)	(-14,2)	(47,8)	(1,90)	(-1,27)	(4,19)	(-9,37)	(25,4)	(-4,42)	(43,52)	(3,52)	
L1D -44>	(1,93)	(48,16)	(41,42)	(-3,23)	(6,12)	(0,5)	(4,16)	(-1,33)	(5,13)	(64,3)	(38,14)	(33,10)	(43,15)	(-15,90)	(51,1)	(44,117)	
L1D -43>	(40,39)	(6,18)	(276,1)	(39,23)	(47,120)	(-2,70)	(41,31)	(-1,30)	(-4,11)	(38,17)	(44,5)	(43,21)	(2,16)	(-3,22)	(42,40)	(1,62)	
L1D -42>	(-3,31)	(1,45)	(45,46)	(-1,58)	(-8,1)	(43,44)	(41,74)	(24,6)	(3,6)	(25,11)	(38,20)	(40,83)	(42,17)	(2,84)	(37,16)	(-4,12)	
L1D -41>	(1,30)	(9,25)	(-9,6)	(43,13)	(52,5)	(5,26)	(81,1)	(47,13)	(0,12)	(39,8)	(49,6)	(-1,21)	(44,7)	(10,3)	(38,6)	(40,92)	
L1D -40>	(-1,7)	(45,16)	(4,87)	(52,34)	(5,1)	(-2,5)	(43,52)	(42,6)	(-7,3)	(40,12)	(41,11)	(81,7)	(9,5)	(1,27)	(44,21)	(39,73)	
L1D -39>	(41,11)	(-3,6)	(39,14)	(-20,9)	(42,4)	(37,2)	(30,1)	(25,4)	(38,108)	(-1,31)	(47,3)	(44,10)	(36,1)	(50,1)	(1,16)	(75,1)	
L1D -38>	(40,8)	(-3,9)	(39,8)	(0,7)	(37,6)	(-5,71)	(-92,4)	(4,45)	(1,34)	(38,40)	(11,28)	(34,26)	(-4,7)	(42,14)	(2,2)	(32,14)	
L1D -37>	(0,30)	(14,22)	(38,15)	(-1,34)	(40,37)	(23,1)	(5,7)	(42,13)	(37,58)	(31,5)	(34,44)	(36,79)	(39,12)	(-22,32)	(1,55)	(2,36)	
L1D -36>	(115,1)	(40,78)	(1,25)	(36,38)	(13,15)	(38,27)	(-1,85)	(-3,41)	(-4,7)	(10,3)	(7,21)	(35,21)	(46,21)	(-23,20)	(5,10)	(26,6)	
L1D -35>	(-3,89)	(-264,3)	(30,1)	(42,1)	(12,1)	(-1,44)	(9,2)	(22,0)	(35,3)	(-5,11)	(38,1)	(-4,0)	(24,0)	(21,12)	(1,5)	(41,1)	
L1D -34>	(-6,1)	(34,28)	(18,6)	(4,6)	(33,4)	(-4,44)	(23,1)	(24,6)	(-7,16)	(44,4)	(-3,11)	(-1,3)	(-248,1)	(11,16)	(32,19)	(-25,99)	
L1D -33>	(1,4)	(37,100)	(34,5)	(33,15)	(2,1)	(0,1)	(55,2)	(22,4)	(42,3)	(7,1)	(49,1)	(-9,3)	(10,1)	(54,1)	(-1,8)	(32,1)	
L1D -32>	(-1,70)	(30,11)	(-27,126)	(0,24)	(42,4)	(31,37)	(4,3)	(36,15)	(22,17)	(33,18)	(292,37)	(41,96)	(1,23)	(-8,6)	(40,10)	(32,54)	
L1D -31>	(0,54)	(1,21)	(-3,112)	(-6,1)	(31,16)	(9,19)	(-70,6)	(4,27)	(-8,11)	(5,22)	(30,36)	(-28,11)	(-5,42)	(48,6)	(32,23)	(7,26)	
L1D -30>	(59,21)	(-3,5)	(1,19)	(-1,42)	(-5,113)	(21,1)	(-6,4)	(8,9)	(30,29)	(-4,27)	(-70,11)	(4,13)	(-10,8)	(-12,4)	(3,9)	(19,4)	
L1D -29>	(29,73)	(1,37)	(0,14)	(8,16)	(19,9)	(2,33)	(28,9)	(-219,14)	(32,117)	(5,8)	(-1,24)	(33,1)	(-30,100)	(6,95)	(-10,9)	(4,4)	
L1D -28>	(28,26)	(1,88)	(-70,6)	(5,6)	(-31,20)	(12,50)	(26,4)	(-1,4)	(51,1)	(-4,16)	(59,7)	(18,12)	(-2,8)	(0,23)	(29,2)	(3,7)	
L1D -27>	(6,1)	(1,42)	(27,36)	(-70,28)	(5,113)	(8,45)	(10,16)	(12,9)	(29,10)	(13,21)	(-1,8)	(26,12)	(28,3)	(4,63)	(0,11)	(59,30)	
L1D -26>	(15,1)	(1,123)	(26,12)	(20,2)	(50,3)	(22,5)	(0,6)	(27,3)	(-2,18)	(-6,4)	(35,2)	(-10,14)	(5,36)	(-1,10)	(6,3)	(23,2)	
L1D -25>	(25,53)	(24,37)	(1,44)	(13,16)	(20,1)	(21,11)	(59,70)	(-6,29)	(10,15)	(22,77)	(23,17)	(-70,100)	(31,71)	(-10,68)	(5,56)	(-1,16)	
L1D -24>	(24,44)	(-9,1)	(12,53)	(1,33)	(13,92)	(6,3)	(-8,10)	(-7,9)	(3,76)	(4,24)	(-4,120)	(-6,15)	(25,6)	(-1,8)	(0,19)	(5,13)	
L1D -23>	(1,78)	(59,8)	(23,32)	(-163,10)	(-7,21)	(-8,1)	(17,9)	(24,14)	(-41,5)	(2,8)	(0,14)	(6,9)	(10,2)	(27,7)	(-1,14)	(26,4)	
L1D -22>	(4,31)	(-162,1)	(1,55)	(21,3)	(-1,9)	(6,6)	(20,8)	(5,32)	(0,8)	(-70,2)	(-9,102)	(2,7)	(22,12)	(23,7)	(-7,8)	(18,6)	
L1D -21>	(1,18)	(39,1)	(-23,1)	(22,5)	(-1,109)	(15,29)	(20,2)	(-10,13)	(6,18)	(2,3)	(0,6)	(21,5)	(4,6)	(5,6)	(18,8)	(13,4)	
L1D -20>	(1,14)	(-70,4)	(-4,3)	(19,4)	(0,4)	(-6,1)	(5,14)	(4,5)	(2,5)	(-2,3)	(21,4)	(-42,2)	(20,92)	(6,6)	(3,8)	(15,63)	
L1D -19>	(18,6)	(1,36)	(25,27)	(-9,12)	(16,1)	(-60,4)	(-2,83)	(21,23)	(23,2)	(4,124)	(5,21)	(15,21)	(2,43)	(6,15)	(8,42)	(-42,12)	
L1D -18>	(1,76)	(5,7)	(12,10)	(4,74)	(17,54)	(0,6)	(28,7)	(11,15)	(-8,2)	(15,18)	(3,46)	(6,18)	(-42,7)	(9,8)	(18,25)	(163,1)	
L1D -17>	(5,5)	(1,116)	(11,7)	(-1,7)	(-7,5)	(3,7)	(14,3)	(8,2)	(2,17)	(0,7)	(6,9)	(-5,61)	(13,12)	(4,65)	(15,7)	(-6,1)	
L1D -16>	(4,29)	(2,9)	(-2,12)	(-5,85)	(1,41)	(3,22)	(0,7)	(144,7)	(-6,39)	(10,8)	(63,12)	(16,12)	(5,4)	(-250,1)	(7,3)	(-1,9)	
L1D -15>	(1,37)	(9,15)	(12,16)	(24,1)	(0,115)	(4,64)	(-6,11)	(2,24)	(5,38)	(6,30)	(11,40)	(17,3)	(93,7)	(-70,7)	(13,20)	(10,9)	
L1D -14>	(1,59)	(2,11)	(10,8)	(-2,25)	(56,12)	(0,23)	(14,69)	(22,2)	(43,7)	(6,19)	(9,23)	(4,58)	(5,21)	(282,4)	(-42,7)	(23,20)	
L1D -13>	(1,22)	(-9,88)	(2,14)	(22,1)	(4,55)	(-176,1)	(13,36)	(0,9)	(10,18)	(3,19)	(18,4)	(-70,1)	(-5,15)	(11,4)	(6,23)	(5,26)	
L1D -12>	(1,70)	(-5,122)	(2,50)	(23,1)	(-10,52)	(10,8)	(6,40)	(0,16)	(5,16)	(12,20)	(11,15)	(4,31)	(-2,11)	(3,13)	(-6,4)	(-32,16)	
L1D -11>	(0,22)	(1,50)	(3,15)	(12,30)	(2,14)	(-40,7)	(6,36)	(-8,11)	(10,9)	(26,14)	(5,35)	(-4,9)	(9,2)	(4,90)	(11,16)	(41,1)	
L1D -10>	(3,12)	(-2,7)	(15,1)	(4,75)	(9,31)	(41,14)	(25,15)	(12,1)	(6,19)	(8,14)	(2,41)	(1,35)	(0,6)	(7,5)	(-6,1)	(5,19)	
L1D -9>	(5,12)	(2,19)	(1,31)	(0,10)	(-1,55)	(4,103)	(61,21)	(7,8)	(-3,21)	(13,12)	(-5,1)	(18,29)	(9,92)	(10,27)	(-2,22)	(15,12)	
L1D -8>	(1,38)	(4,33)	(-6,1)	(-1,48)	(7,19)	(6,25)	(8,63)	(20,7)	(-42,6)	(11,9)	(9,22)	(0,54)	(-8,60)	(93,11)	(10,46)	(2,72)	
L1D -7>	(-4,27)	(30,125)	(0,100)	(15,15)	(1,75)	(56,24)	(66,56)	(6,1)	(4,19)	(7,32)	(-8,24)	(-1,113)	(2,29)	(3,28)	(8,14)	(10,20)	
L1D -6>	(-1,50)	(2,23)	(-11,20)	(5,121)	(4,41)	(0,38)	(1,114)	(-5,53)	(-2,35)	(22,21)	(11,1)	(-6,22)	(10,15)	(-7,27)	(6,49)	(-8,20)	
L1D -5>	(6,33)	(110,1)	(41,26)	(16,16)	(-3,40)	(-15,10)	(4,105)	(1,26)	(-10,14)	(5,50)	(9,35)	(-8,23)	(-6,21)	(-2,10)	(0,13)	(-1,42)	
L1D -4>	(-1,39)	(1,92)	(3,49)	(5,17)	(-15,50)	(-3,46)	(4,83)	(-11,98)	(0,85)	(-4,97)	(-5,86)	(9,1)	(-6,15)	(11,19)	(2,44)	(15,13)	
L1D -3>	(-15,32)	(0,117)	(-7,72)	(20,49)	(43,33)	(4,110)	(6,39)	(32,35)	(-1,55)	(-12,1)	(-5,77)	(2,35)	(1,106)	(-4,45)	(-2,53)	(3,45)	
L1D -2>	(-9,1)	(-1,28)	(0,68)	(-5,68)	(2,27)	(5,20)	(-2,44)	(6,11)	(-10,10)	(3,38)	(4,44)	(-7,32)	(-6,28)	(-4,27)	(-3,45)	(1,66)	
L1D -1>	(-5,7)	(-1,77)	(-8,6)	(5,46)	(125,1)	(-15,6)	(9,19)	(2,22)	(-2,30)	(-7,48)	(-11,13)	(1,54)	(-3,33)	(3,13)	(-10,5)	(0,70)	
L1D 0>	(0,64)	(-105,0)	(1,17)	(8,1)	(-32,0)	(-5,0)	(3,0)	(2,3)	(49,4)	(4,3)	(-7,4)	(9,3)	(85,1)	(5,2)	(-3,2)	(23,1)	
L1D 1>	(1,90)	(2,5)	(-5,1)	(6,1)	(-9,1)	(17,2)	(0,3)	(11,1)	(-12,1)	(5,1)	(3,5)	(-1,6)	(-6,1)	(-218,0)	(-4,4)	(9,0)	
L1D 2>	(6,24)	(-3,52)	(2,19)	(-7,10)	(4,7)	(-1,11)	(1,105)	(12,1)	(8,27)	(3,9)	(-10,6)	(-2,32)	(-4,14)	(-42,2)	(0,11)	(-6,22)	
L1D 3>	(7,13)	(-1,43)	(-13,22)	(4,21)	(1,82)	(-11,40)	(-3,40)	(0,20)	(9,1)	(5,25)	(3,23)	(6,30)	(2,27)	(13,14)	(-4,25)	(-7,21)	
L1D 4>	(-35,20)	(1,25)	(5,73)	(-289,1)	(3,19)	(4,10)	(-17,3)	(-46,23)	(9,64)	(-5,14)	(-8,10)	(2,21)	(-12,29)	(-24,8)	(-7,12)	(-4,19)	
L1D 5>	(-7,15)	(76,1)	(9,109)	(-1,8)	(-41,13)	(-4,30)	(-13,7)	(4,70)	(2,14)	(35,46)	(1,8)	(-11,17)	(-5,42)	(5,10)	(-6,35)	(-31,6)	
L1D 6>	(-5,25)	(-1,55)	(-3,19)	(5,124)	(2,62)	(11,27)	(-10,1)	(-2,14)	(-13,41)	(-12,56)	(-6,71)	(-7,29)	(23,14)	(0,25)	(-11,33)	(1,49)	
L1D 7>	(-6,104)	(-3,19)	(0,31)	(-2,48)	(1,62)	(-15,11)	(-4,61)	(2,32)	(9,21)	(-5,38)	(-1,29)	(-197,1)	(6,7)	(-7,93)	(-11,26)	(-8,11)	
L1D 8>	(-3,21)	(-5,10)	(-1,55)	(-11,15)	(-6,13)	(47,6)	(1,61)	(-15,19)	(-7,18)	(-4,28)	(-10,14)	(7,1)	(3,15)	(8,83)	(-2,23)	(-8,101)	
L1D 9>	(-22,26)	(4,46)	(-8,20)	(-31,10)	(-13,40)	(5,24)	(-2,14)	(9,113)	(40,25)	(-21,46)	(-30,14)	(-12,57)	(215,1)	(-26,15)	(-7,10)	(31,18)	
L1D 10>	(-1,41)	(-7,9)	(-8,58)	(-62,1)	(1,12)	(0,30)	(6,15)	(-10,9)	(-3,97)	(-42,16)	(2,11)	(-11,10)	(-2,56)	(-4,60)	(-24,27)	(-6,49)	
L1D 11>	(-3,19)	(-10,56)	(-9,23)	(-11,36)	(-26,1)	(-1,30)	(-5,18)	(-2,18)	(-6,21)	(1,10)	(0,36)	(-4,115)	(-16,27)	(36,44)	(47,11)	(-8,15)	
L1D 12>	(-11,97)	(-10,18)	(-6,20)	(-2,88)	(-1,18)	(-7,22)	(-5,50)	(-8,43)	(-3,14)	(-133,1)	(0,21)	(-12,47)	(-14,6)	(-42,15)	(-9,11)	(-17,4)	
L1D 13>	(-13,12)	(-8,43)	(1,5)	(40,55)	(0,29)	(-4,17)	(-12,51)	(-18,25)	(13,19)	(20,30)	(-11,1)	(-1,16)	(-3,16)	(59,67)	(-2,94)	(-6,64)	
L1D 14>	(-13,121)	(-2,48)	(7,14)	(-19,46)	(1,13)	(-12,17)	(-14,38)	(-10,25)	(-11,28)	(0,79)	(-15,35)	(23,56)	(-16,34)	(-4,84)	(-7,49)	(-9,1)	
L1D 15>	(-14,112)	(-18,37)	(0,40)	(-4,91)	(-1,50)	(23,23)	(-42,28)	(-11,55)	(-10,72)	(-13,24)	(32,12)	(-26,48)	(-6,37)	(4,36)	(-12,1)	(-16,20)	
L1D 16>	(-15,12)	(112,12)	(-14,8)	(47,84)	(0,49)	(-42,13)	(-2,1)	(-1,61)	(-7,27)	(-25,5)	(-8,8)	(-4,31)	(-13,14)	(23,21)	(-24,5)	(-16,9)	
L1D 17>	(-16,106)	(-2,37)	(-17,7)	(-1,7)	(-19,1)	(-13,38)	(-7,5)	(2,26)	(-42,18)	(-23,13)	(-15,31)	(4,8)	(-11,80)	(1,20)	(-14,23)	(0,24)	
L1D 18>	(-8,11)	(72,60)	(-42,27)	(1,109)	(-13,59)	(0,24)	(-19,16)	(-18,15)	(-7,1)	(-17,25)	(-15,50)	(-11,52)	(-24,17)	(-12,12)	(-3,54)	(-6,18)	
L1D 19>	(-18,23)	(-15,90)	(-42,53)	(-19,38)	(-4,116)	(0,26)	(-1,81)	(-17,32)	(-2,27)	(-10,18)	(-20,61)	(1,22)	(36,11)	(-3,28)	(-8,1)	(-30,13)	
L1D 20>	(-16,69)	(-6,6)	(-19,41)	(-1,6)	(-2,11)	(-17,10)	(-5,7)	(-21,12)	(6,10)	(-42,5)	(-10,1)	(5,15)	(-18,13)	(-331,2)	(-15,9)	(-20,59)	
L1D 21>	(-14,1)	(-42,11)	(8,64)	(-19,15)	(-22,10)	(-25,17)	(-16,32)	(-2,33)	(-18,8)	(-20,29)	(-61,29)	(6,20)	(1,16)	(-1,14)	(-21,6)	(-15,86)	
L1D 22>	(-1,26)	(3,33)	(-7,1)	(-2,14)	(-22,7)	(-24,115)	(-12,32)	(-8,54)	(-19,45)	(-3,21)	(-23,29)	(-4,37)	(-42,22)	(-28,49)	(-18,41)	(-11,22)	
L1D 23>	(4,85)	(-19,16)	(-22,7)	(-23,2)	(-24,17)	(-21,16)	(1,28)	(-1,4)	(6,1)	(3,15)	(-18,5)	(-20,8)	(-2,16)	(-13,6)	(-42,3)	(-4,4)	
L1D 24>	(-57,13)	(-25,32)	(-56,11)	(-1,123)	(-42,34)	(-12,27)	(-11,34)	(-6,14)	(1,48)	(-24,40)	(0,43)	(-21,1)	(-3,31)	(-5,29)	(-19,18)	(-15,59)	
L1D 25>	(-133,25)	(-26,38)	(-12,7)	(-19,13)	(-25,8)	(-40,34)	(-42,38)	(0,1)	(56,47)	(2,30)	(-15,121)	(-2,99)	(-21,43)	(-178,42)	(16,13)	(-4,32)	
L1D 26>	(-25,20)	(2,10)	(0,7)	(-3,28)	(1,35)	(-1,8)	(-41,12)	(-15,108)	(-42,42)	(-22,11)	(-21,1)	(-27,20)	(5,4)	(-23,8)	(-8,7)	(-2,8)	
L1D 27>	(-28,47)	(-4,48)	(-25,27)	(-8,15)	(1,11)	(-15,114)	(-42,90)	(-16,57)	(-3,10)	(-9,1)	(-24,14)	(0,16)	(-23,15)	(12,13)	(-40,13)	(-41,27)	
L1D 28>	(-22,1)	(2,44)	(-29,69)	(1,16)	(-9,4)	(0,22)	(-24,11)	(-3,5)	(-28,71)	(-7,27)	(-41,26)	(-1,48)	(-26,33)	(-5,29)	(-42,93)	(-30,6)	
L1D 29>	(1,21)	(-25,22)	(-28,32)	(-26,1)	(-30,39)	(-29,14)	(6,59)	(-1,15)	(-40,23)	(0,24)	(-2,8)	(2,19)	(-41,8)	(-31,13)	(-42,90)	(-6,12)	
L1D 30>	(-30,5)	(29,2)	(-9,15)	(-42,17)	(9,3)	(-32,8)	(-24,1)	(-34,5)	(-31,7)	(4,49)	(27,4)	(1,3)	(2,2)	(-1,4)	(0,6)	(-33,107)	
L1D 31>	(40,119)	(-6,5)	(41,69)	(1,4)	(0,2)	(-32,7)	(-42,15)	(-177,1)	(-12,1)	(4,19)	(-1,15)	(-40,4)	(82,1)	(-8,1)	(10,3)	(-41,6)	
L1D 32>	(8,26)	(-31,121)	(1,7)	(4,3)	(-36,8)	(-1,29)	(-8,2)	(-42,69)	(10,5)	(-27,38)	(-32,11)	(-24,3)	(-22,2)	(0,9)	(-29,17)	(-33,21)	
L1D 33>	(0,18)	(-39,4)	(-40,34)	(-34,38)	(-60,5)	(-33,31)	(1,8)	(8,8)	(-19,1)	(2,11)	(-1,53)	(-2,11)	(4,11)	(-38,4)	(-42,118)	(-41,14)	
L1D 34>	(-2,8)	(-10,35)	(1,65)	(-32,52)	(-42,127)	(-34,28)	(-1,30)	(-12,10)	(-23,23)	(-8,3)	(-21,9)	(-35,60)	(-24,20)	(0,43)	(-11,5)	(-14,1)	
L1D 35>	(41,71)	(4,1)	(-42,4)	(-5,0)	(-6,1)	(5,5)	(2,0)	(-202,1)	(-8,1)	(-3,1)	(-121,2)	(40,1)	(-162,1)	(0,0)	(6,1)	(-36,3)	
L1D 36>	(40,52)	(4,93)	(-31,3)	(-42,15)	(74,1)	(-41,3)	(-43,1)	(-35,1)	(-32,4)	(-30,4)	(-37,12)	(-1,4)	(-8,12)	(-6,2)	(-38,1)	(-34,9)	
L1D 37>	(-35,90)	(3,1)	(-42,12)	(-43,1)	(2,1)	(23,1)	(6,2)	(-39,1)	(1,1)	(4,1)	(-40,4)	(-41,1)	(-34,1)	(-8,0)	(-44,0)	(-38,9)	
L1D 38>	(-24,2)	(-41,11)	(-38,1)	(-5,2)	(-3,2)	(41,5)	(-40,7)	(-9,1)	(-43,5)	(-1,3)	(-39,101)	(-6,2)	(-2,13)	(-45,4)	(-42,29)	(-10,2)	
L1D 39>	(-7,2)	(-43,9)	(41,9)	(-40,104)	(-41,9)	(-11,6)	(-44,4)	(13,4)	(-1,6)	(40,2)	(-8,5)	(-14,6)	(1,5)	(-9,1)	(-42,50)	(2,3)	
L1D 40>	(41,108)	(-8,1)	(5,14)	(-117,1)	(4,1)	(-121,3)	(-40,3)	(40,1)	(-14,1)	(-283,3)	(-125,1)	(-3,1)	(-43,0)	(-162,0)	(9,3)	(-42,0)	
L1D 41>	(40,89)	(-162,1)	(-122,0)	(-43,3)	(0,0)	(9,6)	(-203,2)	(4,19)	(-45,0)	(-19,0)	(-15,0)	(-49,0)	(-44,0)	(-1,0)	(-284,2)	(-324,8)	
L1D 42>	(4,72)	(15,1)	(-40,19)	(-60,7)	(-8,22)	(-7,32)	(-42,40)	(-45,20)	(-43,122)	(0,13)	(-24,35)	(-11,19)	(-9,45)	(-2,68)	(-10,25)	(-94,14)	
L1D 43>	(-42,123)	(-4,3)	(3,8)	(18,6)	(13,6)	(0,5)	(-44,8)	(-40,29)	(-41,12)	(8,12)	(5,9)	(2,7)	(7,3)	(-3,8)	(-35,5)	(-24,1)	
L1D 44>	(7,10)	(-4,13)	(1,8)	(4,4)	(-8,9)	(41,27)	(-40,18)	(-41,11)	(-31,1)	(-45,15)	(-1,17)	(5,13)	(-44,28)	(2,8)	(-42,94)	(40,24)	
L1D 45>	(-60,10)	(-5,17)	(-41,13)	(40,13)	(6,9)	(4,1)	(0,5)	(-1,11)	(1,18)	(-42,112)	(-2,20)	(-3,13)	(-46,16)	(2,5)	(7,16)	(-40,11)	
L1D 46>	(30,1)	(1,8)	(-42,96)	(4,2)	(-43,10)	(-47,19)	(-46,20)	(-3,5)	(-1,18)	(-7,21)	(2,21)	(-11,1)	(6,9)	(-60,7)	(-6,7)	(-5,2)	
L1D 47>	(4,16)	(-42,34)	(-15,3)	(8,2)	(-46,42)	(-7,5)	(-47,94)	(-40,3)	(-43,2)	(-48,9)	(0,5)	(1,5)	(-30,7)	(-37,4)	(-36,8)	(-34,1)	
L1D 48>	(0,14)	(-5,13)	(-49,22)	(-46,8)	(-1,23)	(-10,9)	(-8,4)	(-2,19)	(-48,5)	(-44,15)	(-43,8)	(-6,10)	(-24,1)	(-42,94)	(-3,6)	(-45,34)	
L1D 49>	(-50,58)	(4,56)	(-64,1)	(-48,84)	(-49,1)	(-41,3)	(-10,4)	(-46,3)	(-8,1)	(-42,41)	(-3,5)	(-2,5)	(-57,7)	(-43,10)	(-45,9)	(-1,3)	
L1D 50>	(-48,4)	(-42,76)	(-12,9)	(-51,20)	(-60,6)	(-43,4)	(6,4)	(-50,13)	(-47,16)	(-45,8)	(-1,6)	(-8,12)	(-36,36)	(-3,8)	(10,1)	(1,10)	
L1D 51>	(-24,3)	(-38,1)	(-43,5)	(-11,9)	(-51,2)	(-60,5)	(-42,68)	(-55,4)	(5,3)	(-35,6)	(-5,5)	(-4,2)	(-52,27)	(-7,25)	(-12,8)	(42,10)	
L1D 52>	(-12,84)	(-53,9)	(-60,8)	(-6,4)	(-43,11)	(-398,2)	(-55,1)	(-2,4)	(-9,6)	(-1,8)	(-7,17)	(-52,27)	(6,8)	(8,1)	(-42,88)	(-46,4)	
L1D 53>	(-5,68)	(-9,5)	(-53,15)	(5,17)	(7,1)	(-10,11)	(-8,8)	(-60,11)	(-42,98)	(-1,3)	(6,12)	(-43,7)	(-6,4)	(-11,10)	(41,7)	(4,7)	
L1D 54>	(1,27)	(-60,5)	(-9,5)	(-42,105)	(5,1)	(-6,9)	(4,6)	(-15,4)	(-22,6)	(-47,4)	(-1,27)	(-24,4)	(-2,6)	(-13,5)	(-5,6)	(-8,24)	
L1D 55>	(-2,13)	(0,7)	(2,1)	(4,6)	(-59,3)	(-24,5)	(-13,3)	(-3,4)	(-11,3)	(-8,23)	(-42,99)	(-12,12)	(-6,2)	(-55,30)	(-54,13)	(-1,14)	
L1D 56>	(-48,72)	(-22,2)	(-11,6)	(-55,34)	(-56,19)	(-13,5)	(61,7)	(-52,7)	(-64,27)	(56,2)	(-398,2)	(2,4)	(-58,2)	(-8,4)	(-42,28)	(-1,5)	
L1D 57>	(-57,68)	(-4,1)	(-47,52)	(-12,14)	(-1,39)	(-8,10)	(-24,34)	(-52,18)	(2,15)	(-42,104)	(-60,14)	(-18,3)	(-2,10)	(-10,10)	(-11,14)	(-55,7)	
L1D 58>	(-16,6)	(-2,26)	(-14,7)	(-3,9)	(-58,4)	(0,8)	(10,1)	(-10,4)	(-42,78)	(-1,20)	(-5,6)	(-47,12)	(-21,60)	(-4,102)	(-60,34)	(-11,20)	
L1D 59>	(4,25)	(-58,41)	(-62,2)	(-32,15)	(-34,20)	(-29,11)	(-42,15)	(-50,7)	(-46,6)	(0,4)	(-36,8)	(-44,9)	(-60,39)	(-52,5)	(-56,119)	(-11,3)	
L1D 60>	(-9,1)	(-402,3)	(-60,13)	(-10,7)	(-11,23)	(-4,17)	(-154,14)	(57,10)	(0,3)	(-42,99)	(-17,5)	(-7,5)	(-2,25)	(-1,24)	(-61,5)	(-3,7)	
L1D 61>	(-254,1)	(-62,96)	(-403,7)	(-59,2)	(1,7)	(-18,5)	(-306,1)	(0,11)	(-58,2)	(8,1)	(-311,2)	(-42,29)	(17,4)	(4,2)	(-50,2)	(-60,6)	
L1D 62>	(0,90)	(-10,10)	(-42,17)	(-1,9)	(21,1)	(-60,24)	(-19,4)	(64,3)	(-8,2)	(-41,1)	(-132,10)	(-3,2)	(5,1)	(1,27)	(4,4)	(-59,6)	
L1D 63>	(64,1)	(-51,1)	(-95,1)	(-133,3)	(4,3)	(-45,3)	(-154,0)	(-61,0)	(-43,3)	(-42,11)	(-59,4)	(-1,0)	(-60,11)	(-44,2)	(3,3)	(-47,85)	
L1D 64>	(-8,15)	(10,22)	(23,11)	(0,37)	(-176,61)	(-16,16)	(-56,102)	(-7,39)	(-64,61)	(-42,18)	(-72,71)	(-24,57)	(112,28)	(18,1)	(-6,38)	(-60,39)	
L1D 65>	(-67,85)	(-21,2)	(-11,4)	(-22,5)	(-1,7)	(-42,47)	(-9,7)	(64,7)	(-60,12)	(-57,6)	(-64,108)	(-7,7)	(0,5)	(51,5)	(-59,1)	(-2,2)	
[...]
L1D 476>	(-200,18)	(-398,1)	(-85,1)	(-5,1)	(-348,1)	(-138,1)	(-32,1)	(0,2)	(1,0)	(1,0)	(1,0)	(1,0)	(1,0)	(1,0)	(1,0)	(1,0)	
L1D 477>	(-160,1)	(-64,2)	(0,4)	(-477,1)	(-393,1)	(1,0)	(1,0)	(1,0)	(1,0)	(1,0)	(1,0)	(1,0)	(1,0)	(1,0)	(1,0)	(1,0)	
L1D 478>	(1,0)	(1,0)	(1,0)	(1,0)	(1,0)	(1,0)	(1,0)	(1,0)	(1,0)	(1,0)	(1,0)	(1,0)	(1,0)	(1,0)	(1,0)	(1,0)	
L1D 479>	(0,2)	(-218,1)	(-216,1)	(1,0)	(1,0)	(1,0)	(1,0)	(1,0)	(1,0)	(1,0)	(1,0)	(1,0)	(1,0)	(1,0)	(1,0)	(1,0)	
L1D 480>	(-224,3)	(-32,3)	(-344,1)	(-359,1)	(-480,28)	(-409,47)	(-472,2)	(1,0)	(1,0)	(1,0)	(1,0)	(1,0)	(1,0)	(1,0)	(1,0)	(1,0)	
L1D 481>	(1,0)	(1,0)	(1,0)	(1,0)	(1,0)	(1,0)	(1,0)	(1,0)	(1,0)	(1,0)	(1,0)	(1,0)	(1,0)	(1,0)	(1,0)	(1,0)	
L1D 482>	(-193,1)	(-117,1)	(-119,2)	(1,0)	(1,0)	(1,0)	(1,0)	(1,0)	(1,0)	(1,0)	(1,0)	(1,0)	(1,0)	(1,0)	(1,0)	(1,0)	
L1D 483>	(1,0)	(1,0)	(1,0)	(1,0)	(1,0)	(1,0)	(1,0)	(1,0)	(1,0)	(1,0)	(1,0)	(1,0)	(1,0)	(1,0)	(1,0)	(1,0)	
L1D 484>	(-192,1)	(1,0)	(1,0)	(1,0)	(1,0)	(1,0)	(1,0)	(1,0)	(1,0)	(1,0)	(1,0)	(1,0)	(1,0)	(1,0)	(1,0)	(1,0)	
L1D 485>	(11,2)	(-218,1)	(-192,2)	(1,0)	(1,0)	(1,0)	(1,0)	(1,0)	(1,0)	(1,0)	(1,0)	(1,0)	(1,0)	(1,0)	(1,0)	(1,0)	
L1D 486>	(1,0)	(1,0)	(1,0)	(1,0)	(1,0)	(1,0)	(1,0)	(1,0)	(1,0)	(1,0)	(1,0)	(1,0)	(1,0)	(1,0)	(1,0)	(1,0)	
L1D 487>	(-192,1)	(1,0)	(1,0)	(1,0)	(1,0)	(1,0)	(1,0)	(1,0)	(1,0)	(1,0)	(1,0)	(1,0)	(1,0)	(1,0)	(1,0)	(1,0)	
L1D 488>	(-16,1)	(-128,1)	(1,0)	(1,0)	(1,0)	(1,0)	(1,0)	(1,0)	(1,0)	(1,0)	(1,0)	(1,0)	(1,0)	(1,0)	(1,0)	(1,0)	
L1D 489>	(1,0)	(1,0)	(1,0)	(1,0)	(1,0)	(1,0)	(1,0)	(1,0)	(1,0)	(1,0)	(1,0)	(1,0)	(1,0)	(1,0)	(1,0)	(1,0)	
L1D 490>	(-88,1)	(1,0)	(1,0)	(1,0)	(1,0)	(1,0)	(1,0)	(1,0)	(1,0)	(1,0)	(1,0)	(1,0)	(1,0)	(1,0)	(1,0)	(1,0)	
L1D 491>	(1,0)	(1,0)	(1,0)	(1,0)	(1,0)	(1,0)	(1,0)	(1,0)	(1,0)	(1,0)	(1,0)	(1,0)	(1,0)	(1,0)	(1,0)	(1,0)	
L1D 492>	(1,0)	(1,0)	(1,0)	(1,0)	(1,0)	(1,0)	(1,0)	(1,0)	(1,0)	(1,0)	(1,0)	(1,0)	(1,0)	(1,0)	(1,0)	(1,0)	
L1D 493>	(11,1)	(1,0)	(1,0)	(1,0)	(1,0)	(1,0)	(1,0)	(1,0)	(1,0)	(1,0)	(1,0)	(1,0)	(1,0)	(1,0)	(1,0)	(1,0)	
L1D 494>	(-218,1)	(1,0)	(1,0)	(1,0)	(1,0)	(1,0)	(1,0)	(1,0)	(1,0)	(1,0)	(1,0)	(1,0)	(1,0)	(1,0)	(1,0)	(1,0)	
L1D 495>	(1,0)	(1,0)	(1,0)	(1,0)	(1,0)	(1,0)	(1,0)	(1,0)	(1,0)	(1,0)	(1,0)	(1,0)	(1,0)	(1,0)	(1,0)	(1,0)	
L1D 496>	(-148,1)	(1,0)	(1,0)	(1,0)	(1,0)	(1,0)	(1,0)	(1,0)	(1,0)	(1,0)	(1,0)	(1,0)	(1,0)	(1,0)	(1,0)	(1,0)	
L1D 497>	(1,0)	(1,0)	(1,0)	(1,0)	(1,0)	(1,0)	(1,0)	(1,0)	(1,0)	(1,0)	(1,0)	(1,0)	(1,0)	(1,0)	(1,0)	(1,0)	
L1D 498>	(-182,1)	(1,0)	(1,0)	(1,0)	(1,0)	(1,0)	(1,0)	(1,0)	(1,0)	(1,0)	(1,0)	(1,0)	(1,0)	(1,0)	(1,0)	(1,0)	
L1D 499>	(-405,1)	(11,1)	(1,0)	(1,0)	(1,0)	(1,0)	(1,0)	(1,0)	(1,0)	(1,0)	(1,0)	(1,0)	(1,0)	(1,0)	(1,0)	(1,0)	
L1D 500>	(1,0)	(1,0)	(1,0)	(1,0)	(1,0)	(1,0)	(1,0)	(1,0)	(1,0)	(1,0)	(1,0)	(1,0)	(1,0)	(1,0)	(1,0)	(1,0)	
L1D 501>	(1,0)	(1,0)	(1,0)	(1,0)	(1,0)	(1,0)	(1,0)	(1,0)	(1,0)	(1,0)	(1,0)	(1,0)	(1,0)	(1,0)	(1,0)	(1,0)	
L1D 502>	(1,0)	(1,0)	(1,0)	(1,0)	(1,0)	(1,0)	(1,0)	(1,0)	(1,0)	(1,0)	(1,0)	(1,0)	(1,0)	(1,0)	(1,0)	(1,0)	
L1D 503>	(1,0)	(1,0)	(1,0)	(1,0)	(1,0)	(1,0)	(1,0)	(1,0)	(1,0)	(1,0)	(1,0)	(1,0)	(1,0)	(1,0)	(1,0)	(1,0)	
L1D 504>	(-375,6)	(1,0)	(1,0)	(1,0)	(1,0)	(1,0)	(1,0)	(1,0)	(1,0)	(1,0)	(1,0)	(1,0)	(1,0)	(1,0)	(1,0)	(1,0)	
L1D 505>	(1,0)	(1,0)	(1,0)	(1,0)	(1,0)	(1,0)	(1,0)	(1,0)	(1,0)	(1,0)	(1,0)	(1,0)	(1,0)	(1,0)	(1,0)	(1,0)	
L1D 506>	(1,0)	(1,0)	(1,0)	(1,0)	(1,0)	(1,0)	(1,0)	(1,0)	(1,0)	(1,0)	(1,0)	(1,0)	(1,0)	(1,0)	(1,0)	(1,0)	
L1D 507>	(1,0)	(1,0)	(1,0)	(1,0)	(1,0)	(1,0)	(1,0)	(1,0)	(1,0)	(1,0)	(1,0)	(1,0)	(1,0)	(1,0)	(1,0)	(1,0)	
L1D 508>	(1,0)	(1,0)	(1,0)	(1,0)	(1,0)	(1,0)	(1,0)	(1,0)	(1,0)	(1,0)	(1,0)	(1,0)	(1,0)	(1,0)	(1,0)	(1,0)	
L1D 509>	(1,0)	(1,0)	(1,0)	(1,0)	(1,0)	(1,0)	(1,0)	(1,0)	(1,0)	(1,0)	(1,0)	(1,0)	(1,0)	(1,0)	(1,0)	(1,0)	
L1D 510>	(1,0)	(1,0)	(1,0)	(1,0)	(1,0)	(1,0)	(1,0)	(1,0)	(1,0)	(1,0)	(1,0)	(1,0)	(1,0)	(1,0)	(1,0)	(1,0)	
L1D 511>	(1,0)	(1,0)	(1,0)	(1,0)	(1,0)	(1,0)	(1,0)	(1,0)	(1,0)	(1,0)	(1,0)	(1,0)	(1,0)	(1,0)	(1,0)	(1,0)	

L2C -64>	(5,5)	(1,221)	(-41,1)	(-1,5)	(-9,1)	(-3,8)	(-2,31)	(-30,1)	(-4,3)	(0,5)	(2,7)	(14,1)	(-36,1)	(3,4)	(16,2)	(4,4)	
L2C -63>	(1,42)	(3,4)	(9,9)	(5,10)	(2,7)	(27,1)	(8,1)	(4,1)	(0,1)	(1,0)	(1,0)	(1,0)	(1,0)	(1,0)	(1,0)	(1,0)	
L2C -62>	(1,8)	(5,1)	(6,1)	(1,0)	(1,0)	(1,0)	(1,0)	(1,0)	(1,0)	(1,0)	(1,0)	(1,0)	(1,0)	(1,0)	(1,0)	(1,0)	
L2C -61>	(1,10)	(7,1)	(4,2)	(9,3)	(23,1)	(45,1)	(2,1)	(24,1)	(5,1)	(1,0)	(1,0)	(1,0)	(1,0)	(1,0)	(1,0)	(1,0)	
L2C -60>	(2,1)	(56,1)	(32,1)	(14,1)	(60,1)	(7,1)	(1,2)	(1,0)	(1,0)	(1,0)	(1,0)	(1,0)	(1,0)	(1,0)	(1,0)	(1,0)	
L2C -59>	(1,6)	(56,1)	(59,2)	(35,1)	(14,2)	(32,2)	(42,1)	(1,0)	(1,0)	(1,0)	(1,0)	(1,0)	(1,0)	(1,0)	(1,0)	(1,0)	
L2C -58>	(61,1)	(5,1)	(26,1)	(2,1)	(55,2)	(-2,1)	(36,1)	(40,1)	(4,1)	(14,1)	(-1,2)	(42,1)	(51,1)	(1,1)	(8,1)	(1,0)	
L2C -57>	(1,6)	(14,1)	(11,1)	(43,1)	(18,1)	(57,1)	(2,1)	(32,1)	(34,1)	(0,1)	(56,1)	(55,1)	(1,0)	(1,0)	(1,0)	(1,0)	
L2C -56>	(1,12)	(2,16)	(24,1)	(7,1)	(57,1)	(33,1)	(5,1)	(6,1)	(48,1)	(10,2)	(-1,1)	(53,1)	(1,0)	(1,0)	(1,0)	(1,0)	
L2C -55>	(18,3)	(1,14)	(56,4)	(0,6)	(-1,3)	(35,2)	(9,2)	(10,2)	(20,2)	(2,4)	(54,1)	(33,1)	(32,1)	(55,10)	(5,2)	(36,1)	
L2C -54>	(2,3)	(56,1)	(1,49)	(8,2)	(53,2)	(35,2)	(7,2)	(16,1)	(32,3)	(51,4)	(12,1)	(28,1)	(14,1)	(45,1)	(15,1)	(52,3)	
L2C -53>	(1,13)	(-7,2)	(-3,1)	(34,1)	(53,1)	(-1,3)	(24,2)	(18,2)	(45,1)	(6,1)	(28,1)	(11,1)	(26,1)	(5,1)	(20,1)	(14,2)	
L2C -52>	(3,3)	(27,2)	(38,2)	(1,21)	(-2,1)	(51,6)	(43,1)	(18,1)	(46,1)	(52,4)	(14,1)	(0,3)	(50,1)	(-1,2)	(-5,1)	(8,1)	
L2C -51>	(39,2)	(4,2)	(51,2)	(32,5)	(5,5)	(1,17)	(29,3)	(-4,2)	(10,3)	(20,3)	(0,3)	(-1,1)	(28,1)	(14,1)	(27,2)	(50,1)	
L2C -50>	(1,14)	(15,1)	(16,3)	(33,1)	(14,1)	(19,1)	(-10,7)	(21,1)	(47,1)	(-3,2)	(29,2)	(5,2)	(6,1)	(22,1)	(-5,2)	(50,4)	
L2C -49>	(-3,3)	(3,1)	(-4,2)	(0,3)	(10,3)	(39,3)	(1,9)	(-2,1)	(49,3)	(-10,1)	(52,1)	(50,4)	(26,2)	(40,2)	(18,1)	(13,1)	
L2C -48>	(-4,1)	(1,8)	(43,1)	(36,2)	(-8,2)	(8,2)	(7,1)	(-11,2)	(0,1)	(54,1)	(49,1)	(-3,1)	(35,2)	(41,1)	(3,1)	(37,1)	
L2C -47>	(1,8)	(30,1)	(16,3)	(35,2)	(33,1)	(6,2)	(2,2)	(17,2)	(-1,2)	(23,1)	(8,2)	(39,3)	(10,1)	(-4,3)	(5,4)	(-7,1)	
L2C -46>	(1,7)	(30,3)	(9,2)	(11,3)	(-1,1)	(0,3)	(-8,1)	(46,1)	(10,1)	(27,1)	(-4,1)	(36,1)	(59,1)	(17,2)	(-3,1)	(3,2)	
L2C -45>	(21,1)	(0,5)	(5,3)	(-1,3)	(19,1)	(13,2)	(1,10)	(42,2)	(44,2)	(8,2)	(4,2)	(32,1)	(-6,1)	(-10,2)	(20,2)	(7,1)	
L2C -44>	(1,17)	(29,1)	(17,1)	(35,1)	(43,1)	(42,1)	(20,2)	(10,3)	(45,2)	(36,3)	(8,1)	(-2,5)	(6,1)	(-1,3)	(41,2)	(49,1)	
L2C -43>	(29,2)	(1,14)	(40,2)	(23,2)	(34,1)	(-11,1)	(37,3)	(30,1)	(11,1)	(44,1)	(12,5)	(35,1)	(5,2)	(8,1)	(-8,1)	(14,2)	
L2C -42>	(1,10)	(14,6)	(19,1)	(-9,2)	(38,1)	(-1,4)	(31,3)	(0,1)	(24,1)	(5,1)	(22,1)	(34,3)	(-17,1)	(2,2)	(3,2)	(27,1)	
L2C -41>	(17,1)	(-1,5)	(6,1)	(39,1)	(1,10)	(51,1)	(40,7)	(0,4)	(37,2)	(35,2)	(4,3)	(41,4)	(16,3)	(46,1)	(5,2)	(31,2)	
L2C -40>	(1,29)	(32,3)	(23,2)	(5,4)	(9,6)	(3,5)	(6,2)	(-1,4)	(41,2)	(34,2)	(31,3)	(28,3)	(-7,1)	(-12,3)	(27,1)	(12,1)	
L2C -39>	(1,12)	(-7,2)	(23,3)	(-12,4)	(-1,6)	(6,3)	(3,1)	(36,2)	(38,4)	(41,3)	(18,3)	(17,7)	(16,2)	(-2,1)	(25,2)	(13,5)	
L2C -38>	(10,2)	(-1,1)	(26,2)	(1,13)	(2,2)	(24,1)	(7,1)	(3,4)	(-8,1)	(-6,1)	(5,2)	(17,1)	(8,5)	(4,1)	(9,1)	(55,2)	
L2C -37>	(17,1)	(38,3)	(30,1)	(5,6)	(-1,8)	(1,6)	(15,1)	(-2,4)	(43,2)	(32,3)	(16,3)	(8,6)	(36,2)	(44,1)	(-13,1)	(-17,1)	
L2C -36>	(1,24)	(-10,3)	(15,4)	(34,3)	(-1,8)	(9,5)	(32,3)	(-8,3)	(23,2)	(14,4)	(5,4)	(48,1)	(49,1)	(2,5)	(30,1)	(41,2)	
L2C -35>	(1,24)	(26,8)	(14,3)	(-1,7)	(-2,2)	(9,3)	(33,1)	(36,2)	(15,3)	(20,2)	(13,3)	(8,3)	(16,2)	(42,2)	(2,2)	(5,9)	
L2C -34>	(1,28)	(13,4)	(24,1)	(-21,2)	(-7,1)	(-16,3)	(-10,2)	(17,3)	(4,2)	(15,7)	(23,2)	(10,4)	(-17,4)	(-1,2)	(37,2)	(5,5)	
L2C -33>	(27,4)	(1,16)	(5,3)	(12,2)	(-1,14)	(0,8)	(-13,3)	(23,5)	(16,4)	(31,7)	(4,1)	(-2,2)	(21,3)	(40,2)	(9,2)	(14,3)	
L2C -32>	(1,28)	(33,3)	(26,3)	(0,3)	(12,1)	(2,3)	(4,2)	(31,6)	(48,3)	(40,1)	(10,7)	(17,2)	(-1,7)	(19,2)	(-15,2)	(32,16)	
L2C -31>	(12,4)	(5,18)	(2,7)	(6,2)	(-21,1)	(23,2)	(41,3)	(-17,1)	(11,1)	(-20,1)	(1,22)	(19,2)	(-2,1)	(34,1)	(21,2)	(17,2)	
L2C -30>	(25,11)	(1,28)	(0,4)	(-7,1)	(15,4)	(3,3)	(4,3)	(16,3)	(14,1)	(10,3)	(39,3)	(32,3)	(-11,1)	(-21,1)	(5,12)	(34,3)	
L2C -29>	(5,11)	(1,27)	(25,4)	(2,4)	(27,6)	(30,5)	(32,2)	(11,4)	(18,2)	(10,1)	(8,5)	(28,4)	(-5,1)	(-1,11)	(-4,2)	(-14,1)	
L2C -28>	(1,25)	(4,6)	(-5,4)	(28,3)	(14,2)	(-6,2)	(9,7)	(12,3)	(8,5)	(22,2)	(13,2)	(-1,7)	(18,2)	(30,6)	(27,8)	(29,1)	
L2C -27>	(1,19)	(28,8)	(27,8)	(23,6)	(5,7)	(-9,2)	(25,3)	(-1,1)	(33,1)	(6,6)	(21,2)	(2,6)	(48,3)	(3,4)	(-15,1)	(0,6)	
L2C -26>	(2,2)	(4,4)	(-3,2)	(1,6)	(-1,8)	(9,1)	(39,2)	(35,1)	(5,10)	(12,4)	(16,1)	(15,5)	(23,1)	(10,4)	(-15,1)	(37,3)	
L2C -25>	(14,7)	(22,3)	(1,16)	(5,7)	(-2,6)	(-1,9)	(-8,2)	(-11,2)	(30,1)	(50,1)	(12,2)	(10,10)	(25,3)	(19,1)	(0,8)	(11,2)	
L2C -24>	(-4,4)	(41,2)	(1,30)	(5,12)	(22,3)	(17,1)	(18,2)	(-1,14)	(23,8)	(0,7)	(3,2)	(8,13)	(-20,1)	(11,2)	(4,3)	(2,6)	
L2C -23>	(1,26)	(38,1)	(-1,11)	(2,7)	(10,9)	(3,2)	(-5,6)	(14,6)	(-2,2)	(11,3)	(5,3)	(26,2)	(12,4)	(0,3)	(47,2)	(17,3)	
L2C -22>	(1,34)	(21,6)	(5,10)	(0,2)	(-1,22)	(-11,3)	(4,4)	(-12,2)	(-30,1)	(-10,4)	(-33,1)	(-5,5)	(16,2)	(-8,2)	(38,2)	(12,3)	
L2C -21>	(10,6)	(1,35)	(-8,3)	(2,6)	(11,5)	(0,71)	(33,1)	(20,6)	(-2,4)	(5,9)	(-6,2)	(3,2)	(-1,11)	(26,2)	(15,8)	(-10,6)	
L2C -20>	(9,3)	(1,39)	(-35,2)	(-1,4)	(18,3)	(5,1)	(29,2)	(19,8)	(8,1)	(47,1)	(2,5)	(6,3)	(14,5)	(21,3)	(34,2)	(23,2)	
L2C -19>	(1,33)	(-8,3)	(16,4)	(-1,14)	(2,16)	(10,1)	(21,2)	(19,18)	(15,7)	(-15,2)	(0,129)	(14,3)	(-18,3)	(5,10)	(-14,4)	(25,3)	
L2C -18>	(1,44)	(21,1)	(-19,2)	(2,11)	(-1,13)	(-7,5)	(3,8)	(18,4)	(6,5)	(19,10)	(-5,3)	(8,4)	(17,13)	(12,9)	(-18,3)	(5,6)	
L2C -17>	(1,35)	(3,6)	(18,12)	(15,12)	(-1,23)	(-9,3)	(10,4)	(6,4)	(-8,5)	(4,2)	(-7,4)	(16,7)	(17,18)	(5,19)	(0,20)	(-6,4)	
L2C -16>	(2,13)	(10,6)	(1,76)	(14,7)	(5,22)	(17,10)	(-1,16)	(-3,4)	(16,27)	(-16,3)	(6,3)	(-4,3)	(0,34)	(15,11)	(11,1)	(25,4)	
L2C -15>	(1,42)	(0,16)	(10,4)	(-34,1)	(16,10)	(20,5)	(4,6)	(15,16)	(17,9)	(-3,2)	(-1,29)	(2,6)	(-4,6)	(32,4)	(5,10)	(24,3)	
L2C -14>	(1,37)	(7,6)	(2,8)	(6,4)	(5,18)	(16,6)	(-1,30)	(19,2)	(-36,1)	(13,3)	(22,2)	(8,5)	(10,8)	(14,11)	(21,1)	(33,7)	
L2C -13>	(1,34)	(6,5)	(15,5)	(-37,1)	(27,4)	(12,5)	(29,3)	(0,39)	(9,7)	(11,3)	(-6,3)	(14,4)	(5,11)	(-1,9)	(23,2)	(8,5)	
L2C -12>	(1,42)	(2,11)	(3,10)	(-10,1)	(21,4)	(5,22)	(8,8)	(30,2)	(40,3)	(-7,3)	(-5,6)	(-1,14)	(6,11)	(9,11)	(16,7)	(-8,5)	
L2C -11>	(1,73)	(4,7)	(-14,3)	(-24,5)	(-1,16)	(-27,1)	(5,30)	(17,2)	(19,3)	(2,12)	(9,15)	(12,6)	(10,22)	(-2,2)	(20,3)	(6,4)	
L2C -10>	(1,115)	(11,21)	(4,9)	(-1,30)	(6,8)	(8,35)	(-6,8)	(10,25)	(25,7)	(0,19)	(2,13)	(15,6)	(5,41)	(12,1)	(-17,3)	(9,15)	
L2C -9>	(1,88)	(10,28)	(-1,24)	(12,11)	(4,16)	(11,32)	(8,17)	(-2,6)	(3,16)	(7,1)	(13,4)	(-5,8)	(9,127)	(-26,2)	(2,12)	(5,23)	
L2C -8>	(1,79)	(19,6)	(-8,7)	(3,90)	(-1,35)	(6,15)	(0,20)	(10,19)	(7,9)	(4,82)	(27,24)	(13,11)	(5,1)	(-6,8)	(9,22)	(8,245)	
L2C -7>	(1,74)	(8,16)	(3,21)	(-1,51)	(-5,5)	(-2,7)	(9,5)	(7,13)	(2,34)	(-4,7)	(20,5)	(10,6)	(48,1)	(5,38)	(25,2)	(0,8)	
L2C -6>	(-5,13)	(7,17)	(19,1)	(1,102)	(-1,43)	(-2,15)	(-12,3)	(5,32)	(6,14)	(4,11)	(0,11)	(11,8)	(2,28)	(8,21)	(3,5)	(43,3)	
L2C -5>	(-4,21)	(1,196)	(9,25)	(-2,32)	(6,30)	(2,29)	(5,35)	(10,36)	(-1,60)	(19,1)	(4,146)	(20,6)	(8,15)	(0,40)	(7,12)	(16,6)	
L2C -4>	(-1,67)	(10,6)	(1,129)	(5,25)	(2,20)	(-4,6)	(0,16)	(-2,6)	(-6,5)	(9,5)	(19,1)	(4,34)	(-14,1)	(-10,1)	(16,2)	(3,13)	
L2C -3>	(1,234)	(-5,33)	(-1,155)	(52,4)	(13,1)	(2,47)	(16,5)	(4,26)	(-4,10)	(6,12)	(9,15)	(3,30)	(-11,6)	(5,35)	(-2,28)	(12,5)	
L2C -2>	(-1,154)	(-10,7)	(-3,14)	(12,3)	(-4,1)	(1,254)	(3,28)	(2,99)	(4,16)	(5,15)	(-17,5)	(0,177)	(-8,18)	(-7,19)	(-5,11)	(-19,8)	
L2C -1>	(0,29)	(-6,5)	(1,85)	(-9,8)	(-33,1)	(2,44)	(4,17)	(-1,239)	(8,9)	(13,8)	(-2,23)	(-4,13)	(-3,8)	(15,5)	(19,3)	(3,17)	
L2C 0>	(2,9)	(1,5)	(-9,8)	(0,196)	(-19,1)	(8,1)	(-16,1)	(-2,4)	(-1,4)	(-23,0)	(51,0)	(-8,3)	(10,0)	(-38,0)	(36,0)	(21,2)	
L2C 1>	(20,1)	(1,183)	(2,22)	(-2,12)	(6,3)	(0,5)	(-1,21)	(43,1)	(5,9)	(-4,6)	(3,28)	(-5,7)	(4,14)	(-3,10)	(-55,2)	(-16,2)	
L2C 2>	(1,211)	(0,22)	(-9,1)	(2,59)	(3,45)	(8,11)	(10,2)	(9,6)	(-1,28)	(-4,23)	(-3,8)	(5,14)	(4,13)	(-8,4)	(-2,74)	(6,11)	
L2C 3>	(-8,59)	(5,23)	(-3,12)	(-1,30)	(4,18)	(1,185)	(-2,23)	(0,7)	(-6,1)	(11,4)	(-9,3)	(-5,44)	(-4,128)	(2,57)	(3,13)	(6,11)	
L2C 4>	(1,182)	(2,33)	(9,3)	(4,9)	(3,13)	(-10,6)	(-1,19)	(8,4)	(-5,20)	(6,8)	(-2,20)	(-3,50)	(-4,49)	(-11,1)	(5,23)	(-8,18)	
L2C 5>	(-1,7)	(1,25)	(5,151)	(6,12)	(-2,14)	(2,3)	(15,6)	(-6,3)	(3,3)	(10,24)	(0,1)	(-5,3)	(4,2)	(11,3)	(-12,1)	(-4,5)	
L2C 6>	(5,130)	(1,149)	(6,31)	(3,13)	(-38,1)	(-9,9)	(-5,30)	(-6,14)	(-28,8)	(-1,31)	(0,9)	(4,24)	(2,35)	(-2,21)	(10,18)	(21,5)	
L2C 7>	(1,106)	(-2,19)	(2,24)	(5,20)	(13,1)	(-51,2)	(15,4)	(-1,26)	(0,10)	(-7,15)	(-16,3)	(4,11)	(-6,20)	(3,9)	(-17,4)	(10,4)	
L2C 8>	(-16,10)	(2,40)	(3,1)	(6,11)	(1,89)	(-6,27)	(0,214)	(-1,31)	(-7,15)	(9,7)	(-9,15)	(-11,9)	(5,33)	(-4,34)	(-8,78)	(-5,25)	
L2C 9>	(1,121)	(2,23)	(-1,39)	(-6,15)	(3,12)	(-10,20)	(-14,7)	(4,8)	(0,92)	(-17,11)	(8,7)	(-2,11)	(-5,18)	(-9,23)	(-8,21)	(25,1)	
L2C 10>	(5,221)	(19,1)	(1,75)	(-8,15)	(-13,7)	(-6,8)	(-1,34)	(0,19)	(-17,10)	(-21,12)	(-9,21)	(2,22)	(-10,58)	(10,47)	(-4,17)	(-11,15)	
L2C 11>	(2,15)	(-1,27)	(1,58)	(-28,4)	(-2,1)	(-10,13)	(4,18)	(-7,8)	(-13,7)	(10,10)	(5,62)	(-6,10)	(-4,11)	(3,13)	(-22,3)	(8,6)	
L2C 12>	(1,66)	(-1,16)	(9,1)	(-2,11)	(-3,6)	(-21,4)	(13,2)	(-15,5)	(-17,3)	(2,19)	(-5,6)	(-14,6)	(-4,6)	(5,28)	(-12,9)	(8,3)	
L2C 13>	(1,41)	(3,9)	(-13,36)	(-1,32)	(-7,5)	(4,11)	(-2,7)	(5,29)	(-5,9)	(-9,1)	(-18,6)	(-3,8)	(10,22)	(15,3)	(2,11)	(6,9)	
L2C 14>	(5,20)	(1,48)	(-5,6)	(-16,9)	(-1,21)	(8,6)	(-32,7)	(-2,5)	(2,21)	(-6,5)	(-3,16)	(4,8)	(-13,7)	(-4,4)	(-18,6)	(-25,1)	
L2C 15>	(2,9)	(1,41)	(4,12)	(-14,13)	(-15,26)	(-6,7)	(-8,7)	(5,93)	(-2,7)	(-16,10)	(-11,1)	(-1,14)	(0,8)	(-44,3)	(20,2)	(-23,3)	
L2C 16>	(3,5)	(1,32)	(-18,1)	(12,5)	(5,27)	(-15,15)	(-16,40)	(20,4)	(-17,7)	(-24,2)	(0,8)	(2,15)	(-1,16)	(-2,2)	(-32,6)	(-6,8)	
L2C 17>	(-15,7)	(-8,5)	(2,35)	(1,38)	(-19,5)	(-16,15)	(-13,3)	(-10,1)	(5,24)	(4,10)	(-17,19)	(-1,15)	(19,2)	(23,3)	(16,5)	(-2,4)	
L2C 18>	(3,5)	(-19,5)	(-4,3)	(1,32)	(-51,2)	(2,9)	(6,4)	(-16,5)	(32,2)	(-1,18)	(-17,6)	(5,23)	(-34,2)	(4,2)	(-21,4)	(-14,1)	
L2C 19>	(-11,5)	(-21,7)	(1,22)	(-5,8)	(-1,12)	(-23,1)	(12,4)	(-22,6)	(-28,4)	(-30,5)	(2,4)	(-18,10)	(-19,75)	(6,7)	(-33,2)	(-29,8)	
L2C 20>	(-7,3)	(1,16)	(6,7)	(-6,5)	(12,7)	(-9,4)	(-18,1)	(5,26)	(-26,3)	(10,11)	(-15,5)	(-16,2)	(-19,5)	(-1,11)	(-55,1)	(-43,1)	
L2C 21>	(-1,8)	(-20,2)	(1,19)	(15,3)	(-24,3)	(-10,4)	(4,8)	(-21,56)	(-22,6)	(-2,7)	(-36,3)	(10,1)	(-15,3)	(-34,2)	(7,2)	(-11,3)	
L2C 22>	(2,6)	(1,15)	(-4,2)	(-15,3)	(-43,2)	(-8,1)	(-1,10)	(-40,3)	(26,1)	(-5,1)	(-51,3)	(-21,4)	(-28,4)	(5,10)	(-33,1)	(-23,3)	
L2C 23>	(-22,12)	(5,8)	(10,9)	(2,7)	(-28,3)	(-55,2)	(-9,4)	(-1,1)	(-15,5)	(-34,2)	(-23,7)	(1,17)	(-11,2)	(-40,1)	(-36,2)	(26,1)	
L2C 24>	(6,2)	(1,16)	(2,6)	(-40,3)	(4,1)	(-23,4)	(-35,2)	(-21,1)	(-46,1)	(-9,3)	(-2,4)	(-10,2)	(-24,9)	(-39,2)	(-5,2)	(-4,7)	
L2C 25>	(1,13)	(3,7)	(-50,2)	(-25,15)	(-14,2)	(6,4)	(-15,5)	(10,6)	(-9,2)	(-17,5)	(-29,1)	(2,24)	(-8,1)	(11,2)	(-11,5)	(14,1)	
L2C 26>	(-1,5)	(1,21)	(-4,1)	(14,1)	(-3,1)	(-56,1)	(-38,3)	(-24,4)	(6,9)	(11,3)	(-37,1)	(-2,4)	(-29,2)	(-51,1)	(-14,3)	(2,5)	
L2C 27>	(1,21)	(-19,26)	(-23,2)	(-17,4)	(-35,2)	(-45,1)	(4,5)	(24,1)	(-6,1)	(-24,3)	(-27,13)	(10,6)	(-1,5)	(5,5)	(-28,5)	(-2,5)	
L2C 28>	(1,21)	(3,4)	(-28,6)	(-10,2)	(-37,2)	(-13,2)	(-31,2)	(-1,6)	(4,5)	(10,4)	(-2,4)	(-19,1)	(-15,1)	(0,2)	(-5,4)	(5,3)	
L2C 29>	(1,11)	(-1,7)	(-27,5)	(-29,6)	(-28,3)	(-21,2)	(-30,2)	(4,6)	(12,3)	(-36,1)	(-2,6)	(-34,2)	(3,2)	(-6,1)	(-17,4)	(-20,1)	
L2C 30>	(8,2)	(0,3)	(-30,4)	(1,23)	(-18,1)	(2,7)	(10,2)	(-40,1)	(-21,5)	(-19,1)	(-34,1)	(-54,1)	(-10,2)	(-25,3)	(-1,13)	(-38,1)	
L2C 31>	(-20,3)	(4,1)	(22,2)	(11,2)	(-1,9)	(-14,4)	(-30,3)	(1,19)	(-31,5)	(-13,2)	(24,1)	(15,2)	(-50,1)	(3,1)	(-2,3)	(-7,1)	
L2C 32>	(1,19)	(-32,8)	(4,2)	(-5,5)	(25,7)	(15,3)	(-34,1)	(19,6)	(-1,9)	(-33,3)	(-2,3)	(-16,2)	(5,8)	(-17,2)	(-20,1)	(-31,4)	
L2C 33>	(1,11)	(0,4)	(5,6)	(-2,4)	(-19,1)	(-51,4)	(-37,2)	(-1,6)	(-11,1)	(-29,6)	(20,3)	(-21,2)	(-31,3)	(-32,5)	(-46,1)	(-34,4)	
L2C 34>	(-51,3)	(-18,2)	(1,24)	(-2,1)	(-14,2)	(22,1)	(-26,1)	(0,4)	(-12,3)	(-1,7)	(13,1)	(4,2)	(-4,1)	(-35,2)	(-8,1)	(-23,1)	
L2C 35>	(-30,3)	(-33,1)	(1,17)	(-14,1)	(-2,1)	(-47,1)	(-55,1)	(6,1)	(-16,1)	(-13,1)	(-44,1)	(21,1)	(-1,8)	(-9,3)	(-6,2)	(-39,1)	
L2C 36>	(1,13)	(-36,2)	(-34,1)	(21,1)	(-5,1)	(-35,3)	(-21,1)	(19,4)	(3,2)	(-24,1)	(-38,1)	(-10,3)	(-4,3)	(-9,1)	(2,2)	(5,4)	
L2C 37>	(-1,5)	(-51,1)	(1,6)	(5,4)	(-5,2)	(-39,3)	(-2,2)	(17,1)	(-30,1)	(0,3)	(-16,1)	(-19,1)	(-43,1)	(-36,3)	(-29,1)	(-32,1)	
L2C 38>	(-5,2)	(1,7)	(5,3)	(-1,1)	(-49,1)	(-18,1)	(-39,8)	(2,3)	(-43,2)	(-32,1)	(-45,1)	(-16,3)	(-33,4)	(-23,4)	(-24,3)	(-3,1)	
L2C 39>	(-38,1)	(1,9)	(0,1)	(2,5)	(-22,1)	(-55,1)	(-39,2)	(5,3)	(-24,2)	(-50,1)	(-16,1)	(-9,2)	(-40,2)	(-27,1)	(-4,2)	(-42,1)	
L2C 40>	(5,4)	(1,16)	(-1,6)	(9,2)	(-32,2)	(-39,7)	(-6,2)	(-4,4)	(-34,4)	(-2,1)	(-23,1)	(-46,1)	(-43,2)	(18,1)	(-14,3)	(-56,1)	
L2C 41>	(5,3)	(1,29)	(4,2)	(-2,2)	(-45,2)	(-42,2)	(-37,1)	(-10,2)	(-49,1)	(-12,2)	(-41,2)	(-31,1)	(-25,1)	(-51,2)	(-27,1)	(-35,1)	
L2C 42>	(1,12)	(-13,1)	(-35,2)	(-3,1)	(-19,1)	(-39,1)	(5,2)	(-43,3)	(-10,1)	(-1,3)	(3,1)	(-33,1)	(-34,2)	(0,2)	(-44,1)	(-4,1)	
L2C 43>	(1,7)	(-12,1)	(10,2)	(-44,2)	(2,1)	(-8,1)	(-20,1)	(-50,1)	(-10,2)	(0,1)	(12,2)	(-26,1)	(-36,2)	(-43,2)	(-32,2)	(-13,2)	
L2C 44>	(-40,1)	(9,1)	(-55,1)	(-29,1)	(-20,1)	(2,3)	(-36,1)	(-47,3)	(-38,1)	(10,2)	(5,1)	(-18,1)	(-25,1)	(-1,2)	(3,1)	(-45,1)	
L2C 45>	(1,4)	(-45,3)	(6,1)	(0,2)	(-34,2)	(-1,3)	(-50,1)	(-44,2)	(-54,1)	(-30,2)	(-10,1)	(-9,1)	(-6,1)	(-19,2)	(-31,1)	(-43,2)	
L2C 46>	(3,2)	(5,1)	(-8,1)	(-20,1)	(-16,1)	(-12,1)	(0,2)	(-45,1)	(16,1)	(1,6)	(-5,2)	(-10,2)	(-1,3)	(-47,2)	(-14,1)	(-9,1)	
L2C 47>	(12,2)	(-55,1)	(2,1)	(-6,2)	(1,4)	(-21,1)	(-18,3)	(3,1)	(-40,1)	(6,2)	(-11,1)	(-12,1)	(5,2)	(-2,3)	(-27,1)	(9,2)	
L2C 48>	(-47,3)	(-29,1)	(5,2)	(1,13)	(-4,1)	(-20,1)	(-5,1)	(-9,1)	(-58,1)	(-3,2)	(-39,2)	(-24,2)	(-1,3)	(-18,1)	(-32,2)	(-35,1)	
L2C 49>	(-53,1)	(0,4)	(1,6)	(-5,1)	(-52,1)	(-48,3)	(-50,2)	(-36,2)	(-8,1)	(-3,2)	(-22,2)	(-23,1)	(5,1)	(-41,2)	(-40,1)	(-1,1)	
L2C 50>	(-34,1)	(-3,1)	(-1,3)	(-12,2)	(-33,3)	(1,10)	(-31,1)	(-25,1)	(-53,3)	(-17,2)	(-23,1)	(-45,3)	(5,1)	(-52,3)	(-5,2)	(-51,2)	
L2C 51>	(-1,3)	(1,6)	(0,2)	(2,1)	(-51,3)	(-39,3)	(10,1)	(-17,2)	(-5,1)	(-52,3)	(-8,1)	(-22,1)	(-53,1)	(-29,1)	(-49,2)	(4,1)	
L2C 52>	(-40,1)	(1,5)	(-1,1)	(-26,1)	(-42,1)	(0,1)	(-43,2)	(-49,1)	(-28,2)	(-51,2)	(-36,1)	(-5,1)	(-21,1)	(-52,1)	(-50,1)	(-24,1)	
L2C 53>	(1,2)	(-4,2)	(-49,1)	(0,1)	(-1,3)	(-50,3)	(-55,2)	(-52,2)	(-26,1)	(-53,1)	(-42,2)	(-44,1)	(-36,1)	(-37,1)	(-54,1)	(5,1)	
L2C 54>	(-4,2)	(1,4)	(-55,1)	(-37,1)	(5,1)	(-2,1)	(-52,2)	(-17,2)	(0,2)	(-18,1)	(-43,1)	(-8,1)	(-22,1)	(-41,1)	(-31,1)	(-39,1)	
L2C 55>	(-43,3)	(-55,13)	(0,9)	(-23,3)	(-21,2)	(-31,1)	(-53,3)	(-50,3)	(1,4)	(-42,2)	(-22,4)	(-16,1)	(-1,2)	(-14,1)	(-47,1)	(-51,2)	
L2C 56>	(-59,1)	(2,3)	(1,1)	(-22,2)	(-24,1)	(-17,1)	(-49,1)	(-40,1)	(-55,1)	(-41,2)	(-2,1)	(-50,1)	(-42,1)	(-18,1)	(-16,1)	(-54,5)	
L2C 57>	(1,3)	(-54,1)	(-20,1)	(-42,1)	(-17,1)	(0,1)	(-50,1)	(-43,1)	(-48,1)	(-49,1)	(-19,1)	(-26,1)	(-15,1)	(1,0)	(1,0)	(1,0)	
L2C 58>	(-4,1)	(-47,1)	(-50,1)	(-9,1)	(-25,1)	(-45,1)	(-35,1)	(1,0)	(1,0)	(1,0)	(1,0)	(1,0)	(1,0)	(1,0)	(1,0)	(1,0)	
L2C 59>	(-28,1)	(-59,2)	(-49,5)	(1,1)	(-25,4)	(-13,1)	(-26,1)	(-20,1)	(-16,1)	(-8,2)	(-4,1)	(-52,1)	(1,0)	(1,0)	(1,0)	(1,0)	
L2C 60>	(-4,2)	(-2,1)	(-1,4)	(-55,1)	(-50,1)	(1,0)	(1,0)	(1,0)	(1,0)	(1,0)	(1,0)	(1,0)	(1,0)	(1,0)	(1,0)	(1,0)	
L2C 61>	(0,1)	(-17,1)	(-21,1)	(1,0)	(1,0)	(1,0)	(1,0)	(1,0)	(1,0)	(1,0)	(1,0)	(1,0)	(1,0)	(1,0)	(1,0)	(1,0)	
L2C 62>	(1,0)	(1,0)	(1,0)	(1,0)	(1,0)	(1,0)	(1,0)	(1,0)	(1,0)	(1,0)	(1,0)	(1,0)	(1,0)	(1,0)	(1,0)	(1,0)	
L2C 63>	(1,0)	(1,0)	(1,0)	(1,0)	(1,0)	(1,0)	(1,0)	(1,0)	(1,0)	(1,0)	(1,0)	(1,0)	(1,0)	(1,0)	(1,0)	(1,0)	

DRAM Statistics
 CHANNEL 0
 RQ ROW_BUFFER_HIT:      72006  ROW_BUFFER_MISS:      16902
 DBUS_CONGESTED:      29335
 WQ ROW_BUFFER_HIT:          3  ROW_BUFFER_MISS:         42  FULL:          0

 AVG_CONGESTED_CYCLE: 6
