
*** ChampSim Multicore Out-of-Order Simulator ***

Warmup Instructions: 1000000
Simulation Instructions: 10000000
Number of CPUs: 4
LLC sets: 8192
LLC ways: 16
Off-chip DRAM Size: 4096 MB Channels: 1 Width: 64-bit Data Rate: 3200 MT/s

CPU 0 runs /home/virtualcse/Data-Prefetching/ChampSim/dpc3_traces/641.leela_s-334B.champsimtrace.xz
CPU 1 runs /home/virtualcse/Data-Prefetching/ChampSim/dpc3_traces/603.bwaves_s-1080B.champsimtrace.xz
CPU 2 runs /home/virtualcse/Data-Prefetching/ChampSim/dpc3_traces/648.exchange2_s-1699B.champsimtrace.xz
CPU 3 runs /home/virtualcse/Data-Prefetching/ChampSim/dpc3_traces/623.xalancbmk_s-202B.champsimtrace.xz
Ultra pref. initializing...
Ultra pref. initialized
Ultra pref. initializing...
Ultra pref. initialized
Ultra pref. initializing...
Ultra pref. initialized
Ultra pref. initializing...
Ultra pref. initialized
Ultra pref. initializing...
Ultra pref. initialized
Ultra pref. initializing...
Ultra pref. initialized
Ultra pref. initializing...
Ultra pref. initialized
Ultra pref. initializing...
Ultra pref. initialized

Warmup complete CPU 0 instructions: 1000002 cycles: 418698 (Simulation time: 0 hr 0 min 9 sec) 
Warmup complete CPU 1 instructions: 1224142 cycles: 418697 (Simulation time: 0 hr 0 min 9 sec) 
Warmup complete CPU 2 instructions: 1368840 cycles: 418697 (Simulation time: 0 hr 0 min 9 sec) 
Warmup complete CPU 3 instructions: 1186546 cycles: 418697 (Simulation time: 0 hr 0 min 9 sec) 

Heartbeat CPU 2 instructions: 10000001 cycles: 4087203 heartbeat IPC: 2.44666 cumulative IPC: 2.35277 (Simulation time: 0 hr 0 min 44 sec) 
Heartbeat CPU 1 instructions: 10000001 cycles: 4566918 heartbeat IPC: 2.18966 cumulative IPC: 2.11557 (Simulation time: 0 hr 0 min 49 sec) 
Finished CPU 2 instructions: 10000001 cycles: 4250201 cumulative IPC: 2.35283 (Simulation time: 0 hr 0 min 50 sec) 
Finished CPU 1 instructions: 10000003 cycles: 4721660 cumulative IPC: 2.1179 (Simulation time: 0 hr 0 min 55 sec) 
Heartbeat CPU 3 instructions: 10000003 cycles: 6004340 heartbeat IPC: 1.66546 cumulative IPC: 1.57788 (Simulation time: 0 hr 1 min 4 sec) 
Finished CPU 3 instructions: 10000001 cycles: 6333557 cumulative IPC: 1.57889 (Simulation time: 0 hr 1 min 12 sec) 
Heartbeat CPU 2 instructions: 20000000 cycles: 8279229 heartbeat IPC: 2.38548 cumulative IPC: 2.37022 (Simulation time: 0 hr 1 min 27 sec) 
Heartbeat CPU 1 instructions: 20000003 cycles: 9247284 heartbeat IPC: 2.13659 cumulative IPC: 2.12671 (Simulation time: 0 hr 1 min 36 sec) 
Heartbeat CPU 0 instructions: 10000002 cycles: 10293276 heartbeat IPC: 0.971508 cumulative IPC: 0.911431 (Simulation time: 0 hr 1 min 45 sec) 
Finished CPU 0 instructions: 10000000 cycles: 10972451 cumulative IPC: 0.911373 (Simulation time: 0 hr 1 min 56 sec) 

CPU 0 Branch Prediction Accuracy: 86.1527% MPKI: 16.139 Average ROB Occupancy at Mispredict: 30.6742

CPU 1 Branch Prediction Accuracy: 93.7503% MPKI: 7.29985 Average ROB Occupancy at Mispredict: 83.451

CPU 2 Branch Prediction Accuracy: 97.2585% MPKI: 3.64928 Average ROB Occupancy at Mispredict: 49.9925

CPU 3 Branch Prediction Accuracy: 99.9787% MPKI: 0.054614 Average ROB Occupancy at Mispredict: 128.982

ChampSim completed all CPUs

Total Simulation Statistics (not including warmup)

CPU 0 cumulative IPC: 0.911373 instructions: 10000000 cycles: 10972451
L1D TOTAL     ACCESS:    4489561  HIT:    4454139  MISS:      35422
L1D LOAD      ACCESS:    1831150  HIT:    1818782  MISS:      12368
L1D RFO       ACCESS:    1182117  HIT:    1177879  MISS:       4238
L1D PREFETCH  ACCESS:    1476294  HIT:    1457478  MISS:      18816
L1D WRITEBACK ACCESS:          0  HIT:          0  MISS:          0
L1I TOTAL     ACCESS:     960661  HIT:     957331  MISS:       3330
L1I LOAD      ACCESS:     960661  HIT:     957331  MISS:       3330
L1I RFO       ACCESS:          0  HIT:          0  MISS:          0
L1I PREFETCH  ACCESS:          0  HIT:          0  MISS:          0
L1I WRITEBACK ACCESS:          0  HIT:          0  MISS:          0
L2C TOTAL     ACCESS:     129154  HIT:     125981  MISS:       3173
L2C LOAD      ACCESS:      15534  HIT:      15027  MISS:        507
L2C RFO       ACCESS:       4226  HIT:       4207  MISS:         19
L2C PREFETCH  ACCESS:     100804  HIT:      98157  MISS:       2647
L2C WRITEBACK ACCESS:       8590  HIT:       8590  MISS:          0

L1D -512>	(50,101)	(1,7)	(0,57)	(12,6)	(125,7)	(75,16)	(25,14)	(94,2)	(100,5)	(11,1)	(38,1)	(6,10)	(2,5)	(13,4)	(-128,1)	(-8,3)	
L1D -511>	(1,100)	(6,16)	(8,4)	(1,0)	(1,0)	(1,0)	(1,0)	(1,0)	(1,0)	(1,0)	(1,0)	(1,0)	(1,0)	(1,0)	(1,0)	(1,0)	
L1D -510>	(6,2)	(11,91)	(1,1)	(1,0)	(1,0)	(1,0)	(1,0)	(1,0)	(1,0)	(1,0)	(1,0)	(1,0)	(1,0)	(1,0)	(1,0)	(1,0)	
L1D -509>	(1,1)	(12,1)	(6,66)	(8,0)	(11,0)	(1,0)	(1,0)	(1,0)	(1,0)	(1,0)	(1,0)	(1,0)	(1,0)	(1,0)	(1,0)	(1,0)	
L1D -508>	(2,12)	(0,28)	(1,29)	(11,74)	(3,0)	(1,0)	(1,0)	(1,0)	(1,0)	(1,0)	(1,0)	(1,0)	(1,0)	(1,0)	(1,0)	(1,0)	
L1D -507>	(13,68)	(8,5)	(12,16)	(2,3)	(1,0)	(1,0)	(1,0)	(1,0)	(1,0)	(1,0)	(1,0)	(1,0)	(1,0)	(1,0)	(1,0)	(1,0)	
L1D -506>	(13,127)	(6,4)	(3,4)	(5,1)	(2,1)	(1,0)	(1,0)	(1,0)	(1,0)	(1,0)	(1,0)	(1,0)	(1,0)	(1,0)	(1,0)	(1,0)	
L1D -505>	(2,3)	(13,40)	(12,33)	(8,19)	(1,0)	(1,0)	(1,0)	(1,0)	(1,0)	(1,0)	(1,0)	(1,0)	(1,0)	(1,0)	(1,0)	(1,0)	
L1D -504>	(1,10)	(0,3)	(1,0)	(1,0)	(1,0)	(1,0)	(1,0)	(1,0)	(1,0)	(1,0)	(1,0)	(1,0)	(1,0)	(1,0)	(1,0)	(1,0)	
L1D -503>	(-8,41)	(6,108)	(0,14)	(2,47)	(1,5)	(1,0)	(1,0)	(1,0)	(1,0)	(1,0)	(1,0)	(1,0)	(1,0)	(1,0)	(1,0)	(1,0)	
L1D -502>	(1,0)	(1,0)	(1,0)	(1,0)	(1,0)	(1,0)	(1,0)	(1,0)	(1,0)	(1,0)	(1,0)	(1,0)	(1,0)	(1,0)	(1,0)	(1,0)	
L1D -501>	(-8,7)	(1,0)	(1,0)	(1,0)	(1,0)	(1,0)	(1,0)	(1,0)	(1,0)	(1,0)	(1,0)	(1,0)	(1,0)	(1,0)	(1,0)	(1,0)	
L1D -500>	(1,0)	(1,0)	(1,0)	(1,0)	(1,0)	(1,0)	(1,0)	(1,0)	(1,0)	(1,0)	(1,0)	(1,0)	(1,0)	(1,0)	(1,0)	(1,0)	
L1D -499>	(-8,8)	(13,111)	(2,18)	(5,1)	(6,9)	(1,0)	(1,0)	(1,0)	(1,0)	(1,0)	(1,0)	(1,0)	(1,0)	(1,0)	(1,0)	(1,0)	
L1D -498>	(6,11)	(-8,15)	(2,2)	(1,0)	(1,0)	(1,0)	(1,0)	(1,0)	(1,0)	(1,0)	(1,0)	(1,0)	(1,0)	(1,0)	(1,0)	(1,0)	
L1D -497>	(12,107)	(1,1)	(-8,85)	(0,0)	(1,0)	(1,0)	(1,0)	(1,0)	(1,0)	(1,0)	(1,0)	(1,0)	(1,0)	(1,0)	(1,0)	(1,0)	
L1D -496>	(0,1)	(1,1)	(1,0)	(1,0)	(1,0)	(1,0)	(1,0)	(1,0)	(1,0)	(1,0)	(1,0)	(1,0)	(1,0)	(1,0)	(1,0)	(1,0)	
L1D -495>	(2,1)	(1,0)	(1,0)	(1,0)	(1,0)	(1,0)	(1,0)	(1,0)	(1,0)	(1,0)	(1,0)	(1,0)	(1,0)	(1,0)	(1,0)	(1,0)	
L1D -494>	(6,1)	(1,0)	(1,0)	(1,0)	(1,0)	(1,0)	(1,0)	(1,0)	(1,0)	(1,0)	(1,0)	(1,0)	(1,0)	(1,0)	(1,0)	(1,0)	
L1D -493>	(6,38)	(1,0)	(1,0)	(1,0)	(1,0)	(1,0)	(1,0)	(1,0)	(1,0)	(1,0)	(1,0)	(1,0)	(1,0)	(1,0)	(1,0)	(1,0)	
L1D -492>	(13,6)	(1,1)	(1,0)	(1,0)	(1,0)	(1,0)	(1,0)	(1,0)	(1,0)	(1,0)	(1,0)	(1,0)	(1,0)	(1,0)	(1,0)	(1,0)	
L1D -491>	(1,0)	(1,0)	(1,0)	(1,0)	(1,0)	(1,0)	(1,0)	(1,0)	(1,0)	(1,0)	(1,0)	(1,0)	(1,0)	(1,0)	(1,0)	(1,0)	
L1D -490>	(1,0)	(1,0)	(1,0)	(1,0)	(1,0)	(1,0)	(1,0)	(1,0)	(1,0)	(1,0)	(1,0)	(1,0)	(1,0)	(1,0)	(1,0)	(1,0)	
L1D -489>	(13,11)	(2,1)	(1,0)	(1,0)	(1,0)	(1,0)	(1,0)	(1,0)	(1,0)	(1,0)	(1,0)	(1,0)	(1,0)	(1,0)	(1,0)	(1,0)	
L1D -488>	(12,1)	(13,1)	(1,0)	(1,0)	(1,0)	(1,0)	(1,0)	(1,0)	(1,0)	(1,0)	(1,0)	(1,0)	(1,0)	(1,0)	(1,0)	(1,0)	
L1D -487>	(13,1)	(1,10)	(0,1)	(1,0)	(1,0)	(1,0)	(1,0)	(1,0)	(1,0)	(1,0)	(1,0)	(1,0)	(1,0)	(1,0)	(1,0)	(1,0)	
L1D -486>	(2,13)	(1,0)	(1,0)	(1,0)	(1,0)	(1,0)	(1,0)	(1,0)	(1,0)	(1,0)	(1,0)	(1,0)	(1,0)	(1,0)	(1,0)	(1,0)	
L1D -485>	(1,0)	(1,0)	(1,0)	(1,0)	(1,0)	(1,0)	(1,0)	(1,0)	(1,0)	(1,0)	(1,0)	(1,0)	(1,0)	(1,0)	(1,0)	(1,0)	
L1D -484>	(1,0)	(1,0)	(1,0)	(1,0)	(1,0)	(1,0)	(1,0)	(1,0)	(1,0)	(1,0)	(1,0)	(1,0)	(1,0)	(1,0)	(1,0)	(1,0)	
L1D -483>	(1,14)	(1,0)	(1,0)	(1,0)	(1,0)	(1,0)	(1,0)	(1,0)	(1,0)	(1,0)	(1,0)	(1,0)	(1,0)	(1,0)	(1,0)	(1,0)	
L1D -482>	(6,9)	(1,0)	(1,0)	(1,0)	(1,0)	(1,0)	(1,0)	(1,0)	(1,0)	(1,0)	(1,0)	(1,0)	(1,0)	(1,0)	(1,0)	(1,0)	
L1D -481>	(1,0)	(1,0)	(1,0)	(1,0)	(1,0)	(1,0)	(1,0)	(1,0)	(1,0)	(1,0)	(1,0)	(1,0)	(1,0)	(1,0)	(1,0)	(1,0)	
L1D -480>	(1,0)	(1,0)	(1,0)	(1,0)	(1,0)	(1,0)	(1,0)	(1,0)	(1,0)	(1,0)	(1,0)	(1,0)	(1,0)	(1,0)	(1,0)	(1,0)	
L1D -479>	(1,0)	(1,0)	(1,0)	(1,0)	(1,0)	(1,0)	(1,0)	(1,0)	(1,0)	(1,0)	(1,0)	(1,0)	(1,0)	(1,0)	(1,0)	(1,0)	
L1D -478>	(1,0)	(1,0)	(1,0)	(1,0)	(1,0)	(1,0)	(1,0)	(1,0)	(1,0)	(1,0)	(1,0)	(1,0)	(1,0)	(1,0)	(1,0)	(1,0)	
L1D -477>	(0,1)	(9,1)	(1,0)	(1,0)	(1,0)	(1,0)	(1,0)	(1,0)	(1,0)	(1,0)	(1,0)	(1,0)	(1,0)	(1,0)	(1,0)	(1,0)	
L1D -476>	(1,1)	(340,1)	(183,1)	(1,0)	(1,0)	(1,0)	(1,0)	(1,0)	(1,0)	(1,0)	(1,0)	(1,0)	(1,0)	(1,0)	(1,0)	(1,0)	
L1D -475>	(0,1)	(1,0)	(1,0)	(1,0)	(1,0)	(1,0)	(1,0)	(1,0)	(1,0)	(1,0)	(1,0)	(1,0)	(1,0)	(1,0)	(1,0)	(1,0)	
L1D -474>	(62,1)	(0,1)	(129,1)	(197,1)	(1,0)	(1,0)	(1,0)	(1,0)	(1,0)	(1,0)	(1,0)	(1,0)	(1,0)	(1,0)	(1,0)	(1,0)	
L1D -473>	(256,1)	(1,0)	(1,0)	(1,0)	(1,0)	(1,0)	(1,0)	(1,0)	(1,0)	(1,0)	(1,0)	(1,0)	(1,0)	(1,0)	(1,0)	(1,0)	
L1D -472>	(128,1)	(1,0)	(1,0)	(1,0)	(1,0)	(1,0)	(1,0)	(1,0)	(1,0)	(1,0)	(1,0)	(1,0)	(1,0)	(1,0)	(1,0)	(1,0)	
L1D -471>	(1,0)	(1,0)	(1,0)	(1,0)	(1,0)	(1,0)	(1,0)	(1,0)	(1,0)	(1,0)	(1,0)	(1,0)	(1,0)	(1,0)	(1,0)	(1,0)	
L1D -470>	(0,2)	(127,1)	(2,1)	(1,0)	(1,0)	(1,0)	(1,0)	(1,0)	(1,0)	(1,0)	(1,0)	(1,0)	(1,0)	(1,0)	(1,0)	(1,0)	
L1D -469>	(1,0)	(1,0)	(1,0)	(1,0)	(1,0)	(1,0)	(1,0)	(1,0)	(1,0)	(1,0)	(1,0)	(1,0)	(1,0)	(1,0)	(1,0)	(1,0)	
L1D -468>	(1,0)	(1,0)	(1,0)	(1,0)	(1,0)	(1,0)	(1,0)	(1,0)	(1,0)	(1,0)	(1,0)	(1,0)	(1,0)	(1,0)	(1,0)	(1,0)	
L1D -467>	(0,1)	(1,0)	(1,0)	(1,0)	(1,0)	(1,0)	(1,0)	(1,0)	(1,0)	(1,0)	(1,0)	(1,0)	(1,0)	(1,0)	(1,0)	(1,0)	
L1D -466>	(3,6)	(1,0)	(1,0)	(1,0)	(1,0)	(1,0)	(1,0)	(1,0)	(1,0)	(1,0)	(1,0)	(1,0)	(1,0)	(1,0)	(1,0)	(1,0)	
L1D -465>	(2,1)	(133,1)	(1,0)	(1,0)	(1,0)	(1,0)	(1,0)	(1,0)	(1,0)	(1,0)	(1,0)	(1,0)	(1,0)	(1,0)	(1,0)	(1,0)	
L1D -464>	(132,1)	(1,0)	(1,0)	(1,0)	(1,0)	(1,0)	(1,0)	(1,0)	(1,0)	(1,0)	(1,0)	(1,0)	(1,0)	(1,0)	(1,0)	(1,0)	
L1D -463>	(131,4)	(1,0)	(1,0)	(1,0)	(1,0)	(1,0)	(1,0)	(1,0)	(1,0)	(1,0)	(1,0)	(1,0)	(1,0)	(1,0)	(1,0)	(1,0)	
L1D -462>	(187,1)	(1,1)	(1,0)	(1,0)	(1,0)	(1,0)	(1,0)	(1,0)	(1,0)	(1,0)	(1,0)	(1,0)	(1,0)	(1,0)	(1,0)	(1,0)	
L1D -461>	(1,0)	(1,0)	(1,0)	(1,0)	(1,0)	(1,0)	(1,0)	(1,0)	(1,0)	(1,0)	(1,0)	(1,0)	(1,0)	(1,0)	(1,0)	(1,0)	
L1D -460>	(0,2)	(125,1)	(1,0)	(1,0)	(1,0)	(1,0)	(1,0)	(1,0)	(1,0)	(1,0)	(1,0)	(1,0)	(1,0)	(1,0)	(1,0)	(1,0)	
L1D -459>	(124,1)	(13,1)	(1,0)	(1,0)	(1,0)	(1,0)	(1,0)	(1,0)	(1,0)	(1,0)	(1,0)	(1,0)	(1,0)	(1,0)	(1,0)	(1,0)	
L1D -458>	(128,1)	(1,0)	(1,0)	(1,0)	(1,0)	(1,0)	(1,0)	(1,0)	(1,0)	(1,0)	(1,0)	(1,0)	(1,0)	(1,0)	(1,0)	(1,0)	
L1D -457>	(127,1)	(1,0)	(1,0)	(1,0)	(1,0)	(1,0)	(1,0)	(1,0)	(1,0)	(1,0)	(1,0)	(1,0)	(1,0)	(1,0)	(1,0)	(1,0)	
L1D -456>	(219,2)	(0,1)	(1,0)	(1,0)	(1,0)	(1,0)	(1,0)	(1,0)	(1,0)	(1,0)	(1,0)	(1,0)	(1,0)	(1,0)	(1,0)	(1,0)	
L1D -455>	(2,1)	(1,0)	(1,0)	(1,0)	(1,0)	(1,0)	(1,0)	(1,0)	(1,0)	(1,0)	(1,0)	(1,0)	(1,0)	(1,0)	(1,0)	(1,0)	
L1D -454>	(454,1)	(1,0)	(1,0)	(1,0)	(1,0)	(1,0)	(1,0)	(1,0)	(1,0)	(1,0)	(1,0)	(1,0)	(1,0)	(1,0)	(1,0)	(1,0)	
L1D -453>	(1,0)	(1,0)	(1,0)	(1,0)	(1,0)	(1,0)	(1,0)	(1,0)	(1,0)	(1,0)	(1,0)	(1,0)	(1,0)	(1,0)	(1,0)	(1,0)	
L1D -452>	(1,0)	(1,0)	(1,0)	(1,0)	(1,0)	(1,0)	(1,0)	(1,0)	(1,0)	(1,0)	(1,0)	(1,0)	(1,0)	(1,0)	(1,0)	(1,0)	
L1D -451>	(0,40)	(244,1)	(221,1)	(3,2)	(114,1)	(1,0)	(1,0)	(1,0)	(1,0)	(1,0)	(1,0)	(1,0)	(1,0)	(1,0)	(1,0)	(1,0)	
L1D -450>	(113,3)	(116,1)	(1,0)	(1,0)	(1,0)	(1,0)	(1,0)	(1,0)	(1,0)	(1,0)	(1,0)	(1,0)	(1,0)	(1,0)	(1,0)	(1,0)	
L1D -449>	(2,1)	(1,0)	(1,0)	(1,0)	(1,0)	(1,0)	(1,0)	(1,0)	(1,0)	(1,0)	(1,0)	(1,0)	(1,0)	(1,0)	(1,0)	(1,0)	
L1D -448>	(0,44)	(-3,9)	(1,0)	(1,0)	(1,0)	(1,0)	(1,0)	(1,0)	(1,0)	(1,0)	(1,0)	(1,0)	(1,0)	(1,0)	(1,0)	(1,0)	
L1D -447>	(-45,6)	(1,0)	(1,0)	(1,0)	(1,0)	(1,0)	(1,0)	(1,0)	(1,0)	(1,0)	(1,0)	(1,0)	(1,0)	(1,0)	(1,0)	(1,0)	
L1D -446>	(114,9)	(1,0)	(1,0)	(1,0)	(1,0)	(1,0)	(1,0)	(1,0)	(1,0)	(1,0)	(1,0)	(1,0)	(1,0)	(1,0)	(1,0)	(1,0)	
L1D -445>	(113,6)	(112,1)	(114,1)	(1,0)	(1,0)	(1,0)	(1,0)	(1,0)	(1,0)	(1,0)	(1,0)	(1,0)	(1,0)	(1,0)	(1,0)	(1,0)	
L1D -444>	(443,1)	(112,2)	(0,3)	(115,4)	(-45,1)	(1,0)	(1,0)	(1,0)	(1,0)	(1,0)	(1,0)	(1,0)	(1,0)	(1,0)	(1,0)	(1,0)	
L1D -443>	(226,1)	(111,3)	(0,3)	(114,1)	(337,1)	(110,1)	(1,0)	(1,0)	(1,0)	(1,0)	(1,0)	(1,0)	(1,0)	(1,0)	(1,0)	(1,0)	
L1D -442>	(212,5)	(113,3)	(442,112)	(215,10)	(421,4)	(108,4)	(110,11)	(220,3)	(441,18)	(439,35)	(443,1)	(105,2)	(0,19)	(437,2)	(440,5)	(438,2)	
L1D -441>	(212,9)	(104,8)	(439,3)	(108,1)	(1,0)	(1,0)	(1,0)	(1,0)	(1,0)	(1,0)	(1,0)	(1,0)	(1,0)	(1,0)	(1,0)	(1,0)	
L1D -440>	(2,1)	(141,1)	(6,1)	(1,0)	(1,0)	(1,0)	(1,0)	(1,0)	(1,0)	(1,0)	(1,0)	(1,0)	(1,0)	(1,0)	(1,0)	(1,0)	
L1D -439>	(0,3)	(1,0)	(1,0)	(1,0)	(1,0)	(1,0)	(1,0)	(1,0)	(1,0)	(1,0)	(1,0)	(1,0)	(1,0)	(1,0)	(1,0)	(1,0)	
L1D -438>	(1,0)	(1,0)	(1,0)	(1,0)	(1,0)	(1,0)	(1,0)	(1,0)	(1,0)	(1,0)	(1,0)	(1,0)	(1,0)	(1,0)	(1,0)	(1,0)	
L1D -437>	(0,6)	(2,24)	(419,5)	(1,7)	(146,4)	(-2,5)	(266,1)	(1,0)	(1,0)	(1,0)	(1,0)	(1,0)	(1,0)	(1,0)	(1,0)	(1,0)	
L1D -436>	(0,3)	(146,2)	(-1,1)	(256,1)	(-9,1)	(436,1)	(1,0)	(1,0)	(1,0)	(1,0)	(1,0)	(1,0)	(1,0)	(1,0)	(1,0)	(1,0)	
L1D -435>	(-2,2)	(251,1)	(2,2)	(0,1)	(32,1)	(265,1)	(-4,1)	(419,1)	(283,1)	(1,0)	(1,0)	(1,0)	(1,0)	(1,0)	(1,0)	(1,0)	
L1D -434>	(298,2)	(434,2)	(-2,5)	(106,2)	(234,1)	(2,15)	(0,3)	(136,2)	(-1,1)	(154,2)	(419,4)	(1,0)	(1,0)	(1,0)	(1,0)	(1,0)	
L1D -433>	(16,1)	(1,0)	(1,0)	(1,0)	(1,0)	(1,0)	(1,0)	(1,0)	(1,0)	(1,0)	(1,0)	(1,0)	(1,0)	(1,0)	(1,0)	(1,0)	
L1D -432>	(1,0)	(1,0)	(1,0)	(1,0)	(1,0)	(1,0)	(1,0)	(1,0)	(1,0)	(1,0)	(1,0)	(1,0)	(1,0)	(1,0)	(1,0)	(1,0)	
L1D -431>	(1,0)	(1,0)	(1,0)	(1,0)	(1,0)	(1,0)	(1,0)	(1,0)	(1,0)	(1,0)	(1,0)	(1,0)	(1,0)	(1,0)	(1,0)	(1,0)	
L1D -430>	(1,0)	(1,0)	(1,0)	(1,0)	(1,0)	(1,0)	(1,0)	(1,0)	(1,0)	(1,0)	(1,0)	(1,0)	(1,0)	(1,0)	(1,0)	(1,0)	
L1D -429>	(4,1)	(1,0)	(1,0)	(1,0)	(1,0)	(1,0)	(1,0)	(1,0)	(1,0)	(1,0)	(1,0)	(1,0)	(1,0)	(1,0)	(1,0)	(1,0)	
L1D -428>	(456,1)	(1,0)	(1,0)	(1,0)	(1,0)	(1,0)	(1,0)	(1,0)	(1,0)	(1,0)	(1,0)	(1,0)	(1,0)	(1,0)	(1,0)	(1,0)	
L1D -427>	(1,0)	(1,0)	(1,0)	(1,0)	(1,0)	(1,0)	(1,0)	(1,0)	(1,0)	(1,0)	(1,0)	(1,0)	(1,0)	(1,0)	(1,0)	(1,0)	
L1D -426>	(-8,1)	(1,0)	(1,0)	(1,0)	(1,0)	(1,0)	(1,0)	(1,0)	(1,0)	(1,0)	(1,0)	(1,0)	(1,0)	(1,0)	(1,0)	(1,0)	
L1D -425>	(0,1)	(1,0)	(1,0)	(1,0)	(1,0)	(1,0)	(1,0)	(1,0)	(1,0)	(1,0)	(1,0)	(1,0)	(1,0)	(1,0)	(1,0)	(1,0)	
L1D -424>	(424,1)	(1,0)	(1,0)	(1,0)	(1,0)	(1,0)	(1,0)	(1,0)	(1,0)	(1,0)	(1,0)	(1,0)	(1,0)	(1,0)	(1,0)	(1,0)	
L1D -423>	(12,1)	(1,0)	(1,0)	(1,0)	(1,0)	(1,0)	(1,0)	(1,0)	(1,0)	(1,0)	(1,0)	(1,0)	(1,0)	(1,0)	(1,0)	(1,0)	
L1D -422>	(1,1)	(4,5)	(12,2)	(1,0)	(1,0)	(1,0)	(1,0)	(1,0)	(1,0)	(1,0)	(1,0)	(1,0)	(1,0)	(1,0)	(1,0)	(1,0)	
L1D -421>	(1,0)	(1,0)	(1,0)	(1,0)	(1,0)	(1,0)	(1,0)	(1,0)	(1,0)	(1,0)	(1,0)	(1,0)	(1,0)	(1,0)	(1,0)	(1,0)	
L1D -420>	(2,1)	(1,0)	(1,0)	(1,0)	(1,0)	(1,0)	(1,0)	(1,0)	(1,0)	(1,0)	(1,0)	(1,0)	(1,0)	(1,0)	(1,0)	(1,0)	
L1D -419>	(0,1)	(1,0)	(1,0)	(1,0)	(1,0)	(1,0)	(1,0)	(1,0)	(1,0)	(1,0)	(1,0)	(1,0)	(1,0)	(1,0)	(1,0)	(1,0)	
L1D -418>	(1,126)	(0,4)	(1,0)	(1,0)	(1,0)	(1,0)	(1,0)	(1,0)	(1,0)	(1,0)	(1,0)	(1,0)	(1,0)	(1,0)	(1,0)	(1,0)	
L1D -417>	(1,0)	(1,0)	(1,0)	(1,0)	(1,0)	(1,0)	(1,0)	(1,0)	(1,0)	(1,0)	(1,0)	(1,0)	(1,0)	(1,0)	(1,0)	(1,0)	
L1D -416>	(1,0)	(1,0)	(1,0)	(1,0)	(1,0)	(1,0)	(1,0)	(1,0)	(1,0)	(1,0)	(1,0)	(1,0)	(1,0)	(1,0)	(1,0)	(1,0)	
L1D -415>	(2,1)	(1,0)	(1,0)	(1,0)	(1,0)	(1,0)	(1,0)	(1,0)	(1,0)	(1,0)	(1,0)	(1,0)	(1,0)	(1,0)	(1,0)	(1,0)	
L1D -414>	(1,0)	(1,0)	(1,0)	(1,0)	(1,0)	(1,0)	(1,0)	(1,0)	(1,0)	(1,0)	(1,0)	(1,0)	(1,0)	(1,0)	(1,0)	(1,0)	
L1D -413>	(413,1)	(2,1)	(1,0)	(1,0)	(1,0)	(1,0)	(1,0)	(1,0)	(1,0)	(1,0)	(1,0)	(1,0)	(1,0)	(1,0)	(1,0)	(1,0)	
L1D -412>	(0,23)	(412,0)	(200,0)	(183,0)	(84,0)	(1,115)	(2,0)	(1,0)	(1,0)	(1,0)	(1,0)	(1,0)	(1,0)	(1,0)	(1,0)	(1,0)	
L1D -411>	(339,1)	(1,0)	(1,0)	(1,0)	(1,0)	(1,0)	(1,0)	(1,0)	(1,0)	(1,0)	(1,0)	(1,0)	(1,0)	(1,0)	(1,0)	(1,0)	
L1D -410>	(0,2)	(13,1)	(2,1)	(1,0)	(1,0)	(1,0)	(1,0)	(1,0)	(1,0)	(1,0)	(1,0)	(1,0)	(1,0)	(1,0)	(1,0)	(1,0)	
L1D -409>	(0,2)	(2,1)	(1,0)	(1,0)	(1,0)	(1,0)	(1,0)	(1,0)	(1,0)	(1,0)	(1,0)	(1,0)	(1,0)	(1,0)	(1,0)	(1,0)	
L1D -408>	(0,2)	(1,0)	(1,0)	(1,0)	(1,0)	(1,0)	(1,0)	(1,0)	(1,0)	(1,0)	(1,0)	(1,0)	(1,0)	(1,0)	(1,0)	(1,0)	
L1D -407>	(1,0)	(1,0)	(1,0)	(1,0)	(1,0)	(1,0)	(1,0)	(1,0)	(1,0)	(1,0)	(1,0)	(1,0)	(1,0)	(1,0)	(1,0)	(1,0)	
L1D -406>	(9,23)	(0,1)	(1,0)	(1,0)	(1,0)	(1,0)	(1,0)	(1,0)	(1,0)	(1,0)	(1,0)	(1,0)	(1,0)	(1,0)	(1,0)	(1,0)	
L1D -405>	(133,3)	(0,6)	(405,2)	(106,2)	(395,18)	(5,1)	(1,0)	(1,0)	(1,0)	(1,0)	(1,0)	(1,0)	(1,0)	(1,0)	(1,0)	(1,0)	
L1D -404>	(9,78)	(1,0)	(1,0)	(1,0)	(1,0)	(1,0)	(1,0)	(1,0)	(1,0)	(1,0)	(1,0)	(1,0)	(1,0)	(1,0)	(1,0)	(1,0)	
L1D -403>	(403,3)	(232,5)	(123,1)	(105,2)	(97,1)	(104,1)	(1,0)	(1,0)	(1,0)	(1,0)	(1,0)	(1,0)	(1,0)	(1,0)	(1,0)	(1,0)	
L1D -402>	(4,1)	(1,0)	(1,0)	(1,0)	(1,0)	(1,0)	(1,0)	(1,0)	(1,0)	(1,0)	(1,0)	(1,0)	(1,0)	(1,0)	(1,0)	(1,0)	
L1D -401>	(1,0)	(1,0)	(1,0)	(1,0)	(1,0)	(1,0)	(1,0)	(1,0)	(1,0)	(1,0)	(1,0)	(1,0)	(1,0)	(1,0)	(1,0)	(1,0)	
L1D -400>	(2,1)	(0,3)	(44,4)	(283,1)	(1,0)	(1,0)	(1,0)	(1,0)	(1,0)	(1,0)	(1,0)	(1,0)	(1,0)	(1,0)	(1,0)	(1,0)	
L1D -399>	(434,1)	(1,0)	(1,0)	(1,0)	(1,0)	(1,0)	(1,0)	(1,0)	(1,0)	(1,0)	(1,0)	(1,0)	(1,0)	(1,0)	(1,0)	(1,0)	
L1D -398>	(-44,2)	(0,5)	(398,3)	(-8,1)	(1,0)	(1,0)	(1,0)	(1,0)	(1,0)	(1,0)	(1,0)	(1,0)	(1,0)	(1,0)	(1,0)	(1,0)	
L1D -397>	(0,1)	(1,0)	(1,0)	(1,0)	(1,0)	(1,0)	(1,0)	(1,0)	(1,0)	(1,0)	(1,0)	(1,0)	(1,0)	(1,0)	(1,0)	(1,0)	
L1D -396>	(396,1)	(0,1)	(1,0)	(1,0)	(1,0)	(1,0)	(1,0)	(1,0)	(1,0)	(1,0)	(1,0)	(1,0)	(1,0)	(1,0)	(1,0)	(1,0)	
L1D -395>	(187,1)	(191,1)	(1,0)	(1,0)	(1,0)	(1,0)	(1,0)	(1,0)	(1,0)	(1,0)	(1,0)	(1,0)	(1,0)	(1,0)	(1,0)	(1,0)	
L1D -394>	(0,1)	(1,0)	(1,0)	(1,0)	(1,0)	(1,0)	(1,0)	(1,0)	(1,0)	(1,0)	(1,0)	(1,0)	(1,0)	(1,0)	(1,0)	(1,0)	
L1D -393>	(359,1)	(1,0)	(1,0)	(1,0)	(1,0)	(1,0)	(1,0)	(1,0)	(1,0)	(1,0)	(1,0)	(1,0)	(1,0)	(1,0)	(1,0)	(1,0)	
L1D -392>	(184,1)	(1,0)	(1,0)	(1,0)	(1,0)	(1,0)	(1,0)	(1,0)	(1,0)	(1,0)	(1,0)	(1,0)	(1,0)	(1,0)	(1,0)	(1,0)	
L1D -391>	(1,0)	(1,0)	(1,0)	(1,0)	(1,0)	(1,0)	(1,0)	(1,0)	(1,0)	(1,0)	(1,0)	(1,0)	(1,0)	(1,0)	(1,0)	(1,0)	
L1D -390>	(0,12)	(2,1)	(-52,1)	(1,0)	(1,0)	(1,0)	(1,0)	(1,0)	(1,0)	(1,0)	(1,0)	(1,0)	(1,0)	(1,0)	(1,0)	(1,0)	
L1D -389>	(1,0)	(1,0)	(1,0)	(1,0)	(1,0)	(1,0)	(1,0)	(1,0)	(1,0)	(1,0)	(1,0)	(1,0)	(1,0)	(1,0)	(1,0)	(1,0)	
L1D -388>	(1,0)	(1,0)	(1,0)	(1,0)	(1,0)	(1,0)	(1,0)	(1,0)	(1,0)	(1,0)	(1,0)	(1,0)	(1,0)	(1,0)	(1,0)	(1,0)	
L1D -387>	(1,0)	(1,0)	(1,0)	(1,0)	(1,0)	(1,0)	(1,0)	(1,0)	(1,0)	(1,0)	(1,0)	(1,0)	(1,0)	(1,0)	(1,0)	(1,0)	
L1D -386>	(1,0)	(1,0)	(1,0)	(1,0)	(1,0)	(1,0)	(1,0)	(1,0)	(1,0)	(1,0)	(1,0)	(1,0)	(1,0)	(1,0)	(1,0)	(1,0)	
L1D -385>	(2,1)	(1,0)	(1,0)	(1,0)	(1,0)	(1,0)	(1,0)	(1,0)	(1,0)	(1,0)	(1,0)	(1,0)	(1,0)	(1,0)	(1,0)	(1,0)	
L1D -384>	(1,0)	(1,0)	(1,0)	(1,0)	(1,0)	(1,0)	(1,0)	(1,0)	(1,0)	(1,0)	(1,0)	(1,0)	(1,0)	(1,0)	(1,0)	(1,0)	
L1D -383>	(1,0)	(1,0)	(1,0)	(1,0)	(1,0)	(1,0)	(1,0)	(1,0)	(1,0)	(1,0)	(1,0)	(1,0)	(1,0)	(1,0)	(1,0)	(1,0)	
L1D -382>	(1,0)	(1,0)	(1,0)	(1,0)	(1,0)	(1,0)	(1,0)	(1,0)	(1,0)	(1,0)	(1,0)	(1,0)	(1,0)	(1,0)	(1,0)	(1,0)	
L1D -381>	(3,1)	(1,0)	(1,0)	(1,0)	(1,0)	(1,0)	(1,0)	(1,0)	(1,0)	(1,0)	(1,0)	(1,0)	(1,0)	(1,0)	(1,0)	(1,0)	
L1D -380>	(-32,1)	(1,0)	(1,0)	(1,0)	(1,0)	(1,0)	(1,0)	(1,0)	(1,0)	(1,0)	(1,0)	(1,0)	(1,0)	(1,0)	(1,0)	(1,0)	
L1D -379>	(1,0)	(1,0)	(1,0)	(1,0)	(1,0)	(1,0)	(1,0)	(1,0)	(1,0)	(1,0)	(1,0)	(1,0)	(1,0)	(1,0)	(1,0)	(1,0)	
L1D -378>	(3,1)	(378,1)	(1,0)	(1,0)	(1,0)	(1,0)	(1,0)	(1,0)	(1,0)	(1,0)	(1,0)	(1,0)	(1,0)	(1,0)	(1,0)	(1,0)	
L1D -377>	(1,0)	(1,0)	(1,0)	(1,0)	(1,0)	(1,0)	(1,0)	(1,0)	(1,0)	(1,0)	(1,0)	(1,0)	(1,0)	(1,0)	(1,0)	(1,0)	
L1D -376>	(1,0)	(1,0)	(1,0)	(1,0)	(1,0)	(1,0)	(1,0)	(1,0)	(1,0)	(1,0)	(1,0)	(1,0)	(1,0)	(1,0)	(1,0)	(1,0)	
L1D -375>	(1,0)	(1,0)	(1,0)	(1,0)	(1,0)	(1,0)	(1,0)	(1,0)	(1,0)	(1,0)	(1,0)	(1,0)	(1,0)	(1,0)	(1,0)	(1,0)	
L1D -374>	(1,0)	(1,0)	(1,0)	(1,0)	(1,0)	(1,0)	(1,0)	(1,0)	(1,0)	(1,0)	(1,0)	(1,0)	(1,0)	(1,0)	(1,0)	(1,0)	
L1D -373>	(2,1)	(1,0)	(1,0)	(1,0)	(1,0)	(1,0)	(1,0)	(1,0)	(1,0)	(1,0)	(1,0)	(1,0)	(1,0)	(1,0)	(1,0)	(1,0)	
L1D -372>	(1,0)	(1,0)	(1,0)	(1,0)	(1,0)	(1,0)	(1,0)	(1,0)	(1,0)	(1,0)	(1,0)	(1,0)	(1,0)	(1,0)	(1,0)	(1,0)	
L1D -371>	(371,1)	(1,0)	(1,0)	(1,0)	(1,0)	(1,0)	(1,0)	(1,0)	(1,0)	(1,0)	(1,0)	(1,0)	(1,0)	(1,0)	(1,0)	(1,0)	
L1D -370>	(125,1)	(25,28)	(1,0)	(1,0)	(1,0)	(1,0)	(1,0)	(1,0)	(1,0)	(1,0)	(1,0)	(1,0)	(1,0)	(1,0)	(1,0)	(1,0)	
L1D -369>	(-1,1)	(1,0)	(1,0)	(1,0)	(1,0)	(1,0)	(1,0)	(1,0)	(1,0)	(1,0)	(1,0)	(1,0)	(1,0)	(1,0)	(1,0)	(1,0)	
L1D -368>	(1,0)	(1,0)	(1,0)	(1,0)	(1,0)	(1,0)	(1,0)	(1,0)	(1,0)	(1,0)	(1,0)	(1,0)	(1,0)	(1,0)	(1,0)	(1,0)	
L1D -367>	(5,3)	(22,1)	(1,0)	(1,0)	(1,0)	(1,0)	(1,0)	(1,0)	(1,0)	(1,0)	(1,0)	(1,0)	(1,0)	(1,0)	(1,0)	(1,0)	
L1D -366>	(331,2)	(9,21)	(3,9)	(5,2)	(6,2)	(78,1)	(1,0)	(1,0)	(1,0)	(1,0)	(1,0)	(1,0)	(1,0)	(1,0)	(1,0)	(1,0)	
L1D -365>	(369,2)	(72,5)	(1,0)	(1,0)	(1,0)	(1,0)	(1,0)	(1,0)	(1,0)	(1,0)	(1,0)	(1,0)	(1,0)	(1,0)	(1,0)	(1,0)	
L1D -364>	(50,2)	(52,9)	(5,81)	(51,6)	(363,1)	(49,6)	(9,48)	(353,1)	(44,3)	(1,0)	(1,0)	(1,0)	(1,0)	(1,0)	(1,0)	(1,0)	
L1D -363>	(51,9)	(361,1)	(75,62)	(9,44)	(1,1)	(355,1)	(5,2)	(367,2)	(-2,15)	(72,15)	(80,1)	(8,1)	(1,0)	(1,0)	(1,0)	(1,0)	
L1D -362>	(50,3)	(0,1)	(36,1)	(52,1)	(51,1)	(27,3)	(17,1)	(-8,1)	(6,1)	(72,3)	(331,2)	(-2,1)	(1,0)	(1,0)	(1,0)	(1,0)	
L1D -361>	(331,7)	(354,2)	(359,1)	(44,1)	(49,1)	(1,1)	(395,1)	(330,1)	(6,1)	(1,0)	(1,0)	(1,0)	(1,0)	(1,0)	(1,0)	(1,0)	
L1D -360>	(48,13)	(52,1)	(6,12)	(51,1)	(40,1)	(64,4)	(2,1)	(47,5)	(-2,8)	(359,1)	(-1,1)	(358,4)	(36,1)	(46,1)	(1,0)	(1,0)	
L1D -359>	(364,1)	(-1,2)	(43,1)	(47,11)	(358,2)	(357,1)	(46,1)	(1,0)	(1,0)	(1,0)	(1,0)	(1,0)	(1,0)	(1,0)	(1,0)	(1,0)	
L1D -358>	(220,1)	(46,5)	(364,2)	(363,2)	(347,1)	(362,2)	(41,1)	(354,2)	(47,1)	(1,0)	(1,0)	(1,0)	(1,0)	(1,0)	(1,0)	(1,0)	
L1D -357>	(351,1)	(220,2)	(-2,3)	(350,1)	(47,1)	(48,1)	(-8,1)	(46,1)	(1,0)	(1,0)	(1,0)	(1,0)	(1,0)	(1,0)	(1,0)	(1,0)	
L1D -356>	(361,1)	(343,2)	(218,1)	(220,2)	(47,4)	(347,1)	(-39,6)	(5,13)	(41,1)	(48,1)	(1,0)	(1,0)	(1,0)	(1,0)	(1,0)	(1,0)	
L1D -355>	(43,3)	(110,2)	(123,2)	(364,1)	(0,2)	(347,1)	(47,1)	(44,1)	(1,0)	(1,0)	(1,0)	(1,0)	(1,0)	(1,0)	(1,0)	(1,0)	
L1D -354>	(216,1)	(1,11)	(220,1)	(364,1)	(354,5)	(45,2)	(1,0)	(1,0)	(1,0)	(1,0)	(1,0)	(1,0)	(1,0)	(1,0)	(1,0)	(1,0)	
L1D -353>	(216,1)	(121,1)	(41,1)	(342,1)	(1,1)	(331,1)	(123,1)	(122,1)	(47,1)	(343,1)	(1,0)	(1,0)	(1,0)	(1,0)	(1,0)	(1,0)	
L1D -352>	(122,1)	(123,2)	(-2,39)	(110,2)	(354,1)	(120,1)	(357,1)	(339,1)	(1,0)	(1,0)	(1,0)	(1,0)	(1,0)	(1,0)	(1,0)	(1,0)	
L1D -351>	(39,1)	(217,1)	(120,1)	(352,2)	(335,1)	(332,1)	(44,1)	(1,0)	(1,0)	(1,0)	(1,0)	(1,0)	(1,0)	(1,0)	(1,0)	(1,0)	
L1D -350>	(110,1)	(118,1)	(364,1)	(343,1)	(2,1)	(39,1)	(1,0)	(1,0)	(1,0)	(1,0)	(1,0)	(1,0)	(1,0)	(1,0)	(1,0)	(1,0)	
L1D -349>	(48,1)	(351,1)	(328,2)	(325,1)	(119,1)	(0,2)	(333,1)	(37,2)	(1,0)	(1,0)	(1,0)	(1,0)	(1,0)	(1,0)	(1,0)	(1,0)	
L1D -348>	(118,2)	(36,1)	(123,1)	(-8,13)	(-64,1)	(338,1)	(351,3)	(111,1)	(1,0)	(1,0)	(1,0)	(1,0)	(1,0)	(1,0)	(1,0)	(1,0)	
L1D -347>	(123,1)	(219,1)	(113,1)	(364,1)	(-65,1)	(0,1)	(360,3)	(341,1)	(332,1)	(349,1)	(1,0)	(1,0)	(1,0)	(1,0)	(1,0)	(1,0)	
L1D -346>	(110,1)	(364,1)	(346,6)	(358,2)	(360,2)	(1,0)	(1,0)	(1,0)	(1,0)	(1,0)	(1,0)	(1,0)	(1,0)	(1,0)	(1,0)	(1,0)	
L1D -345>	(-47,18)	(3,10)	(123,1)	(22,11)	(-129,1)	(23,19)	(120,1)	(325,1)	(-22,1)	(2,1)	(21,1)	(322,1)	(328,1)	(360,1)	(0,1)	(44,2)	
L1D -344>	(113,2)	(0,1)	(363,1)	(35,2)	(344,1)	(6,1)	(1,0)	(1,0)	(1,0)	(1,0)	(1,0)	(1,0)	(1,0)	(1,0)	(1,0)	(1,0)	
L1D -343>	(118,1)	(115,1)	(339,1)	(364,1)	(0,2)	(358,1)	(359,1)	(199,1)	(7,1)	(1,0)	(1,0)	(1,0)	(1,0)	(1,0)	(1,0)	(1,0)	
L1D -342>	(118,1)	(-112,1)	(114,2)	(326,1)	(117,1)	(360,1)	(1,0)	(1,0)	(1,0)	(1,0)	(1,0)	(1,0)	(1,0)	(1,0)	(1,0)	(1,0)	
L1D -341>	(220,1)	(110,2)	(216,1)	(107,2)	(219,6)	(364,1)	(0,1)	(348,1)	(3,1)	(114,1)	(245,1)	(120,1)	(9,2)	(1,0)	(1,0)	(1,0)	
L1D -340>	(123,2)	(113,1)	(219,21)	(0,2)	(-1,1)	(110,7)	(108,2)	(111,4)	(209,5)	(115,1)	(118,4)	(122,2)	(4,1)	(218,1)	(109,1)	(81,1)	
L1D -339>	(286,24)	(-1,1)	(26,1)	(25,0)	(27,0)	(336,0)	(276,109)	(208,0)	(218,0)	(360,0)	(1,0)	(1,0)	(1,0)	(1,0)	(1,0)	(1,0)	
L1D -338>	(121,1)	(110,1)	(219,14)	(74,1)	(337,4)	(26,4)	(244,2)	(25,1)	(335,1)	(122,1)	(111,1)	(23,1)	(-134,1)	(1,0)	(1,0)	(1,0)	
L1D -337>	(1,12)	(122,4)	(113,19)	(200,3)	(220,3)	(0,2)	(111,17)	(110,30)	(25,1)	(112,1)	(215,1)	(219,7)	(26,2)	(120,6)	(3,2)	(336,1)	
L1D -336>	(108,3)	(367,1)	(333,1)	(110,18)	(338,2)	(25,2)	(37,1)	(24,8)	(220,1)	(-28,1)	(335,2)	(0,1)	(344,1)	(326,10)	(164,8)	(245,9)	
L1D -335>	(109,5)	(120,19)	(123,18)	(220,42)	(108,100)	(-124,1)	(111,50)	(219,73)	(213,5)	(115,5)	(113,2)	(335,1)	(122,10)	(119,17)	(112,19)	(197,10)	
L1D -334>	(219,13)	(123,0)	(218,11)	(117,7)	(118,6)	(111,7)	(108,23)	(107,30)	(110,70)	(3,3)	(122,3)	(210,3)	(105,4)	(220,9)	(112,4)	(217,5)	
L1D -333>	(123,2)	(0,6)	(-109,1)	(124,24)	(105,2)	(113,2)	(110,1)	(9,5)	(4,2)	(219,1)	(331,1)	(112,1)	(108,5)	(313,2)	(5,3)	(2,1)	
L1D -332>	(105,60)	(329,59)	(335,34)	(0,14)	(215,1)	(196,16)	(1,52)	(121,27)	(109,25)	(3,62)	(-2,49)	(195,8)	(110,26)	(111,74)	(108,68)	(201,17)	
L1D -331>	(0,18)	(113,19)	(114,8)	(334,50)	(107,21)	(328,55)	(108,8)	(105,8)	(332,9)	(217,1)	(-3,25)	(110,40)	(123,10)	(3,65)	(111,48)	(337,12)	
L1D -330>	(286,46)	(18,1)	(116,0)	(111,0)	(15,1)	(41,1)	(276,107)	(164,4)	(108,0)	(124,7)	(83,7)	(120,2)	(1,0)	(1,0)	(1,0)	(1,0)	
L1D -329>	(41,62)	(4,3)	(9,75)	(192,1)	(40,10)	(203,1)	(108,0)	(111,3)	(221,0)	(-3,0)	(110,1)	(214,0)	(328,1)	(117,2)	(329,0)	(-114,0)	
L1D -328>	(1,21)	(110,20)	(0,2)	(108,7)	(191,6)	(9,4)	(324,1)	(329,1)	(192,7)	(-108,1)	(-6,2)	(114,3)	(331,1)	(113,2)	(120,17)	(4,26)	
L1D -327>	(117,2)	(210,1)	(138,1)	(107,2)	(1,2)	(191,5)	(106,1)	(313,2)	(7,74)	(-5,3)	(327,3)	(-1,3)	(111,1)	(5,12)	(-8,3)	(192,1)	
L1D -326>	(105,1)	(110,23)	(326,9)	(118,3)	(332,2)	(313,4)	(191,5)	(107,18)	(221,2)	(4,3)	(0,6)	(113,17)	(114,2)	(9,3)	(111,52)	(117,4)	
L1D -325>	(-14,1)	(5,49)	(9,6)	(221,0)	(324,0)	(313,0)	(41,94)	(110,0)	(108,0)	(328,0)	(332,0)	(13,1)	(1,0)	(1,0)	(1,0)	(1,0)	
L1D -324>	(-13,0)	(9,73)	(-9,0)	(4,4)	(40,5)	(-1,0)	(-4,1)	(1,0)	(1,0)	(1,0)	(1,0)	(1,0)	(1,0)	(1,0)	(1,0)	(1,0)	
L1D -323>	(9,120)	(13,1)	(214,8)	(2,8)	(-10,12)	(-1,3)	(44,21)	(5,18)	(323,1)	(11,1)	(110,2)	(113,1)	(1,0)	(1,0)	(1,0)	(1,0)	
L1D -322>	(5,51)	(41,36)	(2,4)	(4,2)	(191,3)	(313,2)	(326,2)	(332,1)	(322,1)	(107,3)	(146,13)	(319,1)	(-1,1)	(-23,2)	(10,5)	(221,1)	
L1D -321>	(5,79)	(4,5)	(41,21)	(-1,5)	(324,1)	(319,4)	(331,2)	(214,27)	(315,1)	(108,1)	(-3,2)	(49,1)	(183,1)	(0,1)	(-2,1)	(1,0)	
L1D -320>	(40,87)	(117,1)	(-13,1)	(4,2)	(192,1)	(5,33)	(41,113)	(9,3)	(112,1)	(-12,2)	(1,0)	(1,0)	(1,0)	(1,0)	(1,0)	(1,0)	
L1D -319>	(319,10)	(191,2)	(322,1)	(9,62)	(318,3)	(4,3)	(316,1)	(0,1)	(340,1)	(-15,1)	(6,1)	(317,3)	(255,1)	(1,0)	(1,0)	(1,0)	
L1D -318>	(318,0)	(9,120)	(0,0)	(474,0)	(1,0)	(1,0)	(1,0)	(1,0)	(1,0)	(1,0)	(1,0)	(1,0)	(1,0)	(1,0)	(1,0)	(1,0)	
L1D -317>	(-37,1)	(110,1)	(108,1)	(312,1)	(-41,2)	(7,1)	(315,3)	(314,4)	(-46,1)	(316,3)	(1,3)	(330,1)	(0,11)	(313,6)	(6,1)	(4,1)	
L1D -316>	(2,50)	(-43,1)	(193,1)	(-47,1)	(313,14)	(297,1)	(1,47)	(310,2)	(4,4)	(41,32)	(3,1)	(348,1)	(-16,3)	(314,4)	(-44,1)	(320,4)	
L1D -315>	(316,5)	(3,7)	(-49,3)	(309,2)	(-45,2)	(303,3)	(311,1)	(299,3)	(-25,1)	(-39,1)	(108,1)	(4,1)	(-13,1)	(-17,2)	(192,3)	(112,1)	
L1D -314>	(2,4)	(311,2)	(313,1)	(312,4)	(296,1)	(326,1)	(316,2)	(299,1)	(304,4)	(295,1)	(-13,1)	(309,2)	(46,1)	(308,3)	(0,1)	(-128,1)	
L1D -313>	(-2,6)	(314,6)	(320,1)	(310,10)	(308,4)	(-26,1)	(309,5)	(311,15)	(305,2)	(317,2)	(298,2)	(312,8)	(-50,1)	(-19,2)	(8,1)	(300,2)	
L1D -312>	(-24,5)	(314,53)	(312,13)	(311,91)	(313,63)	(308,26)	(310,69)	(2,21)	(309,51)	(292,5)	(-26,1)	(315,58)	(326,8)	(13,11)	(323,16)	(10,6)	
L1D -311>	(335,3)	(-6,2)	(110,1)	(301,1)	(294,7)	(332,3)	(-19,1)	(-37,3)	(-1,19)	(2,1)	(318,5)	(-51,1)	(319,3)	(324,1)	(296,1)	(288,1)	
L1D -310>	(318,1)	(111,2)	(-2,44)	(320,2)	(-17,2)	(309,2)	(302,2)	(14,1)	(314,1)	(315,1)	(322,1)	(139,1)	(294,1)	(313,6)	(312,8)	(1,2)	
L1D -309>	(111,2)	(-48,2)	(-52,3)	(316,6)	(0,10)	(-1,1)	(-3,8)	(312,1)	(305,1)	(310,3)	(307,1)	(-134,1)	(309,3)	(191,1)	(11,1)	(138,1)	
L1D -308>	(293,1)	(-42,1)	(299,2)	(312,3)	(-4,2)	(308,1)	(0,1)	(324,4)	(315,1)	(330,1)	(192,3)	(-3,1)	(311,1)	(310,2)	(327,1)	(1,0)	
L1D -307>	(-128,1)	(-21,1)	(129,1)	(242,1)	(192,4)	(8,1)	(137,1)	(312,1)	(1,0)	(1,0)	(1,0)	(1,0)	(1,0)	(1,0)	(1,0)	(1,0)	
L1D -306>	(16,84)	(295,2)	(191,0)	(317,0)	(0,1)	(320,0)	(-5,0)	(1,0)	(1,0)	(1,0)	(1,0)	(1,0)	(1,0)	(1,0)	(1,0)	(1,0)	
L1D -305>	(439,1)	(-61,1)	(293,1)	(310,1)	(322,1)	(-7,2)	(305,1)	(308,1)	(2,1)	(311,2)	(306,4)	(1,0)	(1,0)	(1,0)	(1,0)	(1,0)	
L1D -304>	(325,1)	(110,1)	(1,1)	(305,1)	(311,5)	(-6,1)	(6,12)	(306,1)	(0,4)	(304,1)	(439,1)	(312,1)	(-7,2)	(-16,1)	(323,3)	(291,1)	
L1D -303>	(-2,1)	(-4,1)	(306,1)	(323,2)	(-9,2)	(6,1)	(311,1)	(-42,1)	(-36,1)	(1,0)	(1,0)	(1,0)	(1,0)	(1,0)	(1,0)	(1,0)	
L1D -302>	(-103,1)	(291,120)	(0,20)	(1,9)	(303,9)	(309,1)	(-10,1)	(1,0)	(1,0)	(1,0)	(1,0)	(1,0)	(1,0)	(1,0)	(1,0)	(1,0)	
L1D -301>	(311,2)	(308,1)	(-11,1)	(-1,1)	(-5,1)	(406,92)	(0,8)	(302,5)	(-16,1)	(1,0)	(1,0)	(1,0)	(1,0)	(1,0)	(1,0)	(1,0)	
L1D -300>	(-12,4)	(-37,1)	(301,1)	(311,1)	(124,1)	(0,2)	(63,1)	(62,1)	(405,3)	(-10,1)	(48,1)	(302,1)	(327,1)	(1,0)	(1,0)	(1,0)	
L1D -299>	(0,1)	(327,2)	(299,3)	(311,3)	(-11,2)	(-52,1)	(310,2)	(283,2)	(-2,1)	(-108,1)	(-172,1)	(-106,1)	(150,1)	(171,1)	(-3,1)	(-13,1)	
L1D -298>	(434,3)	(-105,4)	(298,5)	(-14,3)	(299,1)	(26,1)	(-1,2)	(0,5)	(127,4)	(226,1)	(120,1)	(260,1)	(31,1)	(125,1)	(1,0)	(1,0)	
L1D -297>	(-15,2)	(0,1)	(-43,1)	(-2,1)	(1,0)	(1,0)	(1,0)	(1,0)	(1,0)	(1,0)	(1,0)	(1,0)	(1,0)	(1,0)	(1,0)	(1,0)	
L1D -296>	(0,4)	(296,1)	(291,25)	(298,1)	(-138,1)	(152,1)	(-12,1)	(-66,2)	(-16,1)	(-13,1)	(297,1)	(1,0)	(1,0)	(1,0)	(1,0)	(1,0)	
L1D -295>	(301,51)	(311,1)	(-4,1)	(2,1)	(-17,1)	(0,1)	(1,0)	(1,0)	(1,0)	(1,0)	(1,0)	(1,0)	(1,0)	(1,0)	(1,0)	(1,0)	
L1D -294>	(334,7)	(311,1)	(295,1)	(-8,10)	(-2,1)	(1,0)	(1,0)	(1,0)	(1,0)	(1,0)	(1,0)	(1,0)	(1,0)	(1,0)	(1,0)	(1,0)	
L1D -293>	(9,1)	(-1,4)	(74,1)	(0,2)	(-19,1)	(147,1)	(1,0)	(1,0)	(1,0)	(1,0)	(1,0)	(1,0)	(1,0)	(1,0)	(1,0)	(1,0)	
L1D -292>	(295,105)	(3,8)	(294,1)	(-48,1)	(-18,1)	(293,1)	(1,0)	(1,0)	(1,0)	(1,0)	(1,0)	(1,0)	(1,0)	(1,0)	(1,0)	(1,0)	
L1D -291>	(264,1)	(1,1)	(126,1)	(-20,1)	(331,2)	(311,2)	(309,1)	(291,1)	(1,0)	(1,0)	(1,0)	(1,0)	(1,0)	(1,0)	(1,0)	(1,0)	
L1D -290>	(167,1)	(4,1)	(271,1)	(292,4)	(301,25)	(11,30)	(-22,3)	(47,2)	(330,1)	(331,2)	(130,2)	(5,1)	(1,0)	(1,0)	(1,0)	(1,0)	
L1D -289>	(41,81)	(5,0)	(-22,0)	(9,104)	(330,0)	(289,1)	(4,0)	(40,2)	(1,0)	(1,0)	(1,0)	(1,0)	(1,0)	(1,0)	(1,0)	(1,0)	
L1D -288>	(4,0)	(0,0)	(289,0)	(9,0)	(40,1)	(8,0)	(277,123)	(1,1)	(1,0)	(1,0)	(1,0)	(1,0)	(1,0)	(1,0)	(1,0)	(1,0)	
L1D -287>	(16,1)	(9,2)	(8,113)	(3,34)	(0,3)	(126,0)	(7,0)	(1,0)	(1,0)	(1,0)	(1,0)	(1,0)	(1,0)	(1,0)	(1,0)	(1,0)	
L1D -286>	(-1,1)	(5,4)	(-3,1)	(4,1)	(288,1)	(9,21)	(283,1)	(0,5)	(436,1)	(1,0)	(1,0)	(1,0)	(1,0)	(1,0)	(1,0)	(1,0)	
L1D -285>	(4,5)	(41,2)	(-3,5)	(9,4)	(-2,1)	(1,0)	(1,0)	(1,0)	(1,0)	(1,0)	(1,0)	(1,0)	(1,0)	(1,0)	(1,0)	(1,0)	
L1D -284>	(5,1)	(40,38)	(9,116)	(4,8)	(28,0)	(1,0)	(1,0)	(1,0)	(1,0)	(1,0)	(1,0)	(1,0)	(1,0)	(1,0)	(1,0)	(1,0)	
L1D -283>	(4,117)	(-3,0)	(-2,0)	(9,2)	(1,0)	(1,0)	(1,0)	(1,0)	(1,0)	(1,0)	(1,0)	(1,0)	(1,0)	(1,0)	(1,0)	(1,0)	
L1D -282>	(271,4)	(290,4)	(152,1)	(283,1)	(41,20)	(221,2)	(0,2)	(145,1)	(277,2)	(1,0)	(1,0)	(1,0)	(1,0)	(1,0)	(1,0)	(1,0)	
L1D -281>	(42,48)	(271,2)	(41,13)	(25,1)	(220,1)	(221,8)	(270,1)	(0,1)	(4,6)	(2,1)	(279,1)	(287,5)	(1,0)	(1,0)	(1,0)	(1,0)	
L1D -280>	(220,0)	(41,102)	(5,6)	(42,0)	(8,0)	(54,1)	(9,0)	(-44,0)	(4,0)	(284,0)	(-1,0)	(221,0)	(1,1)	(1,0)	(1,0)	(1,0)	
L1D -279>	(-11,96)	(220,6)	(9,1)	(218,1)	(1,1)	(40,10)	(219,2)	(221,8)	(4,14)	(-121,1)	(-9,0)	(269,0)	(1,0)	(1,0)	(1,0)	(1,0)	
L1D -278>	(1,0)	(0,0)	(-2,0)	(221,0)	(220,0)	(219,0)	(268,0)	(218,0)	(264,0)	(7,0)	(233,0)	(281,82)	(1,0)	(1,0)	(1,0)	(1,0)	
L1D -277>	(266,2)	(220,5)	(1,14)	(219,4)	(267,2)	(221,10)	(259,1)	(218,1)	(1,0)	(1,0)	(1,0)	(1,0)	(1,0)	(1,0)	(1,0)	(1,0)	
L1D -276>	(219,6)	(220,8)	(265,2)	(266,2)	(217,1)	(132,1)	(260,1)	(0,1)	(281,19)	(287,1)	(1,0)	(1,0)	(1,0)	(1,0)	(1,0)	(1,0)	
L1D -275>	(36,22)	(276,2)	(218,2)	(219,6)	(41,16)	(40,1)	(-47,1)	(264,2)	(265,1)	(217,1)	(5,2)	(1,0)	(1,0)	(1,0)	(1,0)	(1,0)	
L1D -274>	(268,1)	(220,6)	(219,1)	(0,1)	(14,1)	(217,1)	(239,1)	(1,0)	(1,0)	(1,0)	(1,0)	(1,0)	(1,0)	(1,0)	(1,0)	(1,0)	
L1D -273>	(264,1)	(221,2)	(219,2)	(217,1)	(220,15)	(201,1)	(248,1)	(1,0)	(1,0)	(1,0)	(1,0)	(1,0)	(1,0)	(1,0)	(1,0)	(1,0)	
L1D -272>	(218,3)	(272,5)	(277,1)	(219,1)	(135,1)	(0,21)	(253,1)	(44,1)	(220,2)	(221,7)	(-133,3)	(123,1)	(261,1)	(-24,1)	(8,1)	(-1,1)	
L1D -271>	(282,1)	(-16,7)	(219,0)	(220,1)	(11,0)	(13,2)	(271,0)	(86,0)	(50,1)	(0,6)	(270,0)	(134,0)	(276,0)	(41,110)	(54,7)	(1,11)	
L1D -270>	(0,38)	(217,3)	(218,2)	(221,60)	(132,1)	(271,1)	(220,1)	(-9,67)	(2,1)	(231,1)	(-17,1)	(219,1)	(289,1)	(261,1)	(1,0)	(1,0)	
L1D -269>	(0,7)	(220,34)	(221,89)	(268,2)	(269,2)	(218,1)	(1,0)	(1,0)	(1,0)	(1,0)	(1,0)	(1,0)	(1,0)	(1,0)	(1,0)	(1,0)	
L1D -268>	(336,1)	(221,115)	(-14,1)	(217,0)	(-73,0)	(-1,0)	(220,46)	(269,4)	(219,20)	(268,0)	(1,0)	(1,0)	(1,0)	(1,0)	(1,0)	(1,0)	
L1D -267>	(277,1)	(220,89)	(217,1)	(221,10)	(0,6)	(219,19)	(-1,2)	(268,3)	(256,1)	(262,1)	(105,1)	(218,13)	(255,1)	(232,1)	(1,0)	(1,0)	
L1D -266>	(219,27)	(-75,1)	(263,1)	(0,1)	(218,2)	(221,35)	(135,1)	(-74,1)	(125,0)	(255,117)	(1,6)	(1,0)	(1,0)	(1,0)	(1,0)	(1,0)	
L1D -265>	(0,53)	(217,4)	(218,35)	(271,3)	(276,1)	(5,1)	(138,3)	(219,1)	(264,72)	(-3,3)	(2,2)	(220,99)	(137,1)	(277,1)	(1,0)	(1,0)	
L1D -264>	(-1,8)	(-35,1)	(0,11)	(218,2)	(219,45)	(-136,1)	(-143,1)	(5,15)	(2,7)	(115,1)	(137,1)	(264,9)	(251,1)	(-8,4)	(216,1)	(-207,1)	
L1D -263>	(218,11)	(269,1)	(259,1)	(139,1)	(221,6)	(252,1)	(263,1)	(220,1)	(0,1)	(-3,1)	(1,0)	(1,0)	(1,0)	(1,0)	(1,0)	(1,0)	
L1D -262>	(216,2)	(217,3)	(273,1)	(262,1)	(197,1)	(221,1)	(-3,51)	(220,100)	(3,25)	(261,1)	(318,1)	(1,0)	(1,0)	(1,0)	(1,0)	(1,0)	
L1D -261>	(220,3)	(267,2)	(221,64)	(40,1)	(219,5)	(0,1)	(109,1)	(115,1)	(1,0)	(1,0)	(1,0)	(1,0)	(1,0)	(1,0)	(1,0)	(1,0)	
L1D -260>	(-11,8)	(3,8)	(2,39)	(220,63)	(-5,68)	(133,2)	(75,3)	(221,7)	(255,2)	(39,8)	(219,3)	(6,2)	(10,23)	(272,1)	(1,0)	(1,0)	
L1D -259>	(135,2)	(220,12)	(249,2)	(219,14)	(232,1)	(-12,2)	(260,1)	(243,1)	(-5,1)	(195,3)	(121,1)	(167,29)	(265,107)	(1,0)	(1,0)	(1,0)	
L1D -258>	(-13,67)	(1,3)	(277,0)	(131,0)	(219,1)	(218,3)	(258,0)	(476,0)	(247,0)	(89,1)	(0,1)	(1,0)	(1,0)	(1,0)	(1,0)	(1,0)	
L1D -257>	(129,2)	(221,11)	(-3,24)	(-14,5)	(71,1)	(217,4)	(0,1)	(410,1)	(241,1)	(-1,5)	(1,0)	(1,0)	(1,0)	(1,0)	(1,0)	(1,0)	
L1D -256>	(0,31)	(1,35)	(259,17)	(239,4)	(128,3)	(221,99)	(72,1)	(252,44)	(125,1)	(256,7)	(141,3)	(133,2)	(115,1)	(101,1)	(81,1)	(264,2)	
L1D -255>	(216,8)	(259,1)	(195,1)	(221,2)	(0,3)	(1,2)	(220,50)	(280,1)	(175,1)	(-64,3)	(79,1)	(191,1)	(255,1)	(62,1)	(-1,1)	(1,0)	
L1D -254>	(1,35)	(217,12)	(-17,2)	(219,23)	(139,1)	(250,6)	(-2,51)	(253,86)	(71,11)	(265,2)	(257,66)	(0,5)	(220,7)	(259,33)	(218,1)	(-8,1)	
L1D -253>	(294,5)	(259,1)	(219,1)	(221,5)	(252,6)	(-1,1)	(253,5)	(257,7)	(264,1)	(218,1)	(15,1)	(129,1)	(1,0)	(1,0)	(1,0)	(1,0)	
L1D -252>	(256,4)	(128,5)	(257,1)	(221,10)	(184,1)	(-3,4)	(-9,77)	(-52,1)	(315,1)	(218,1)	(1,1)	(248,1)	(-2,1)	(455,1)	(252,1)	(0,2)	
L1D -251>	(219,3)	(1,18)	(220,5)	(4,10)	(-32,1)	(262,1)	(246,1)	(105,1)	(251,1)	(136,1)	(7,5)	(128,1)	(1,0)	(1,0)	(1,0)	(1,0)	
L1D -250>	(219,12)	(239,1)	(290,2)	(246,24)	(218,1)	(291,1)	(217,1)	(75,1)	(250,1)	(-8,2)	(221,1)	(254,1)	(-7,3)	(1,0)	(1,0)	(1,0)	
L1D -249>	(289,30)	(259,1)	(260,1)	(220,17)	(40,1)	(290,1)	(217,1)	(249,3)	(102,2)	(218,2)	(219,1)	(248,6)	(99,1)	(2,1)	(221,3)	(237,1)	
L1D -248>	(-8,1)	(4,1)	(264,0)	(257,0)	(240,0)	(5,9)	(40,122)	(-16,0)	(219,0)	(220,6)	(120,0)	(1,0)	(1,0)	(1,0)	(1,0)	(1,0)	
L1D -247>	(218,2)	(38,2)	(-85,78)	(9,1)	(0,2)	(1,4)	(-215,1)	(247,23)	(-216,15)	(-218,2)	(-84,5)	(5,6)	(245,18)	(-9,2)	(8,6)	(221,1)	
L1D -246>	(75,3)	(5,4)	(246,2)	(245,0)	(121,0)	(256,0)	(8,122)	(7,110)	(-83,7)	(1,5)	(4,0)	(-89,4)	(-1,3)	(221,0)	(236,0)	(-216,1)	
L1D -245>	(-107,2)	(9,14)	(0,11)	(-87,115)	(219,2)	(245,47)	(242,78)	(5,26)	(-215,2)	(4,5)	(-4,1)	(-2,1)	(235,1)	(221,10)	(8,4)	(13,5)	
L1D -244>	(242,0)	(5,125)	(9,3)	(221,0)	(379,0)	(-107,0)	(13,0)	(3,0)	(1,0)	(1,0)	(1,0)	(1,0)	(1,0)	(1,0)	(1,0)	(1,0)	
L1D -243>	(219,0)	(-4,0)	(4,29)	(5,69)	(6,0)	(0,0)	(217,0)	(40,0)	(-107,0)	(-83,0)	(47,0)	(218,0)	(241,0)	(220,0)	(-9,3)	(9,4)	
L1D -242>	(221,22)	(0,9)	(238,4)	(-84,6)	(218,2)	(9,5)	(239,2)	(232,3)	(-10,47)	(1,83)	(242,88)	(245,20)	(247,17)	(5,99)	(44,38)	(-90,11)	
L1D -241>	(5,89)	(221,8)	(1,6)	(217,3)	(2,2)	(-89,2)	(-107,2)	(0,7)	(240,5)	(40,17)	(235,5)	(239,3)	(-110,1)	(-216,2)	(-215,1)	(220,2)	
L1D -240>	(-2,1)	(5,82)	(0,1)	(240,1)	(-1,1)	(4,5)	(103,2)	(220,1)	(221,20)	(243,0)	(239,6)	(241,2)	(234,0)	(219,0)	(238,3)	(40,14)	
L1D -239>	(5,82)	(4,15)	(220,14)	(-42,6)	(1,54)	(221,30)	(40,113)	(219,5)	(-110,4)	(243,4)	(-4,8)	(186,9)	(218,6)	(0,1)	(-217,1)	(-84,2)	
L1D -238>	(219,23)	(-42,41)	(1,28)	(4,11)	(-107,28)	(5,40)	(0,13)	(226,1)	(234,2)	(-98,2)	(19,2)	(237,9)	(217,3)	(-110,3)	(-92,2)	(238,16)	
L1D -237>	(217,3)	(454,1)	(218,3)	(221,23)	(236,1)	(0,4)	(-219,1)	(237,13)	(240,12)	(103,1)	(219,4)	(220,4)	(21,1)	(239,1)	(227,3)	(115,1)	
L1D -236>	(220,4)	(221,77)	(3,110)	(1,3)	(-111,2)	(0,2)	(215,2)	(138,2)	(127,1)	(236,5)	(237,5)	(240,2)	(235,1)	(6,1)	(13,2)	(100,1)	
L1D -235>	(219,13)	(232,5)	(233,39)	(235,4)	(0,4)	(234,2)	(6,9)	(5,96)	(224,1)	(220,21)	(1,1)	(3,16)	(41,17)	(243,1)	(238,7)	(231,7)	
L1D -234>	(221,7)	(40,3)	(270,2)	(-100,36)	(103,3)	(1,6)	(218,19)	(6,2)	(-211,1)	(232,16)	(3,18)	(229,3)	(219,16)	(4,13)	(220,2)	(234,8)	
L1D -233>	(3,41)	(233,12)	(123,6)	(6,2)	(224,2)	(227,3)	(0,12)	(242,2)	(219,5)	(235,3)	(232,44)	(-216,1)	(237,2)	(221,20)	(9,3)	(218,12)	
L1D -232>	(219,13)	(0,20)	(105,9)	(221,6)	(-111,12)	(-117,6)	(403,4)	(-120,1)	(5,4)	(1,14)	(232,10)	(234,56)	(-114,11)	(229,47)	(230,47)	(3,42)	
L1D -231>	(6,35)	(231,15)	(0,30)	(221,97)	(4,4)	(-120,1)	(-114,6)	(218,2)	(10,2)	(-99,3)	(7,2)	(-113,3)	(-117,4)	(228,5)	(-1,2)	(3,15)	
L1D -230>	(110,12)	(4,26)	(217,3)	(-8,20)	(229,35)	(0,20)	(221,19)	(218,7)	(230,8)	(2,5)	(-118,9)	(3,5)	(-117,6)	(6,24)	(186,1)	(-114,2)	
L1D -229>	(217,5)	(220,11)	(-10,61)	(4,7)	(221,12)	(229,12)	(-216,10)	(3,48)	(-103,14)	(8,1)	(1,8)	(226,25)	(232,47)	(6,11)	(0,14)	(-1,7)	
L1D -228>	(0,9)	(-114,2)	(220,65)	(219,7)	(221,106)	(218,4)	(-104,3)	(228,17)	(225,9)	(-111,4)	(6,5)	(-107,3)	(224,1)	(216,2)	(-118,3)	(-10,6)	
L1D -227>	(227,30)	(3,55)	(224,118)	(1,10)	(4,4)	(89,5)	(230,11)	(6,5)	(-110,8)	(113,3)	(-102,6)	(-108,4)	(223,1)	(-105,38)	(-106,14)	(226,4)	
L1D -226>	(89,12)	(224,73)	(-5,4)	(5,42)	(223,72)	(0,14)	(221,9)	(-108,10)	(1,5)	(219,26)	(6,20)	(227,1)	(226,16)	(3,98)	(-106,33)	(229,8)	
L1D -225>	(0,20)	(-12,2)	(-13,31)	(3,24)	(-117,2)	(6,97)	(-111,3)	(220,2)	(11,2)	(-102,6)	(218,4)	(242,7)	(-106,1)	(221,10)	(116,11)	(228,7)	
L1D -224>	(220,4)	(-108,1)	(3,38)	(221,127)	(-107,5)	(222,12)	(224,6)	(232,3)	(219,4)	(108,2)	(6,19)	(5,6)	(0,18)	(-111,16)	(-110,12)	(105,4)	
L1D -223>	(221,79)	(223,10)	(-1,2)	(3,17)	(219,6)	(0,5)	(-114,1)	(220,22)	(1,3)	(2,1)	(6,34)	(5,7)	(259,1)	(-5,1)	(-111,2)	(-108,3)	
L1D -222>	(-109,1)	(111,3)	(6,92)	(220,8)	(221,25)	(-118,2)	(219,10)	(-110,5)	(-2,4)	(227,4)	(224,6)	(225,10)	(218,2)	(-117,6)	(3,11)	(222,10)	
L1D -221>	(221,93)	(6,9)	(-7,1)	(0,14)	(-110,3)	(241,3)	(3,4)	(-5,1)	(233,3)	(84,6)	(242,1)	(218,2)	(-111,8)	(239,1)	(111,2)	(110,3)	
L1D -220>	(0,8)	(221,52)	(220,73)	(114,3)	(233,3)	(113,1)	(279,2)	(229,1)	(-8,1)	(-6,3)	(-107,1)	(241,4)	(262,1)	(6,5)	(234,1)	(273,2)	
L1D -219>	(268,5)	(243,3)	(220,53)	(219,84)	(245,2)	(259,7)	(234,7)	(248,3)	(276,9)	(108,3)	(3,2)	(270,3)	(114,3)	(279,3)	(239,4)	(6,4)	
L1D -218>	(219,84)	(218,87)	(245,19)	(-108,1)	(270,4)	(233,2)	(6,2)	(243,4)	(247,2)	(11,3)	(273,5)	(264,4)	(3,12)	(249,2)	(108,6)	(254,4)	
L1D -217>	(218,78)	(227,5)	(253,4)	(6,19)	(111,31)	(110,45)	(239,2)	(238,3)	(217,38)	(123,22)	(214,1)	(232,3)	(244,3)	(270,1)	(234,1)	(113,9)	
L1D -216>	(217,24)	(122,8)	(6,8)	(216,36)	(114,3)	(0,6)	(110,18)	(111,71)	(11,3)	(5,5)	(214,2)	(3,2)	(-113,3)	(113,39)	(1,2)	(-6,1)	
L1D -215>	(215,103)	(-11,20)	(6,21)	(121,28)	(0,9)	(-5,26)	(98,25)	(113,32)	(110,95)	(5,10)	(112,53)	(105,1)	(332,7)	(218,16)	(212,12)	(111,25)	
L1D -214>	(120,16)	(-6,42)	(110,93)	(5,17)	(108,1)	(111,3)	(-118,3)	(1,34)	(213,5)	(0,8)	(-20,9)	(12,11)	(-5,23)	(6,70)	(214,10)	(13,9)	
L1D -213>	(-5,84)	(119,28)	(329,7)	(5,10)	(0,14)	(110,36)	(6,46)	(-6,74)	(213,91)	(111,33)	(7,5)	(17,1)	(3,12)	(210,10)	(334,13)	(108,8)	
L1D -212>	(0,5)	(4,11)	(212,32)	(209,16)	(11,4)	(9,23)	(334,18)	(-6,34)	(105,1)	(110,5)	(-9,5)	(109,13)	(6,74)	(118,52)	(-5,3)	(-11,13)	
L1D -211>	(4,3)	(1,5)	(117,53)	(-11,25)	(6,68)	(-6,43)	(0,4)	(5,13)	(106,10)	(-21,11)	(209,18)	(-1,1)	(-10,29)	(208,9)	(211,18)	(-5,12)	
L1D -210>	(116,31)	(110,14)	(107,79)	(0,3)	(-12,3)	(-2,1)	(-6,44)	(334,9)	(6,15)	(11,3)	(-102,2)	(-5,4)	(105,40)	(5,9)	(-11,5)	(210,44)	
L1D -209>	(-6,90)	(6,107)	(5,24)	(0,7)	(-25,11)	(-11,26)	(224,4)	(113,3)	(-5,18)	(1,6)	(4,3)	(11,22)	(213,3)	(-98,3)	(115,6)	(209,11)	
L1D -208>	(40,4)	(41,94)	(5,5)	(-118,2)	(9,6)	(206,0)	(-10,0)	(-22,0)	(114,9)	(111,0)	(6,7)	(-6,0)	(329,0)	(-5,1)	(-11,0)	(-27,1)	
L1D -207>	(-6,56)	(40,34)	(9,118)	(2,3)	(-106,4)	(6,29)	(322,2)	(5,13)	(89,2)	(-35,1)	(113,77)	(105,6)	(328,2)	(-4,3)	(11,4)	(207,21)	
L1D -206>	(6,68)	(5,6)	(113,10)	(114,1)	(208,1)	(206,28)	(112,6)	(3,22)	(213,1)	(110,4)	(-6,11)	(-3,1)	(8,2)	(-26,1)	(-108,1)	(-16,1)	
L1D -205>	(-6,92)	(-102,7)	(-38,28)	(9,5)	(0,7)	(-1,7)	(5,30)	(6,14)	(202,1)	(205,3)	(-16,6)	(-5,38)	(204,25)	(-149,20)	(111,12)	(-108,4)	
L1D -204>	(5,18)	(207,3)	(6,46)	(41,82)	(-10,7)	(11,8)	(-6,29)	(201,2)	(4,20)	(3,19)	(204,7)	(203,14)	(-16,2)	(-103,6)	(111,10)	(-5,12)	
L1D -203>	(4,13)	(41,88)	(5,14)	(40,55)	(109,3)	(111,3)	(6,4)	(2,1)	(9,95)	(-3,1)	(331,1)	(0,1)	(107,0)	(110,2)	(-102,0)	(-6,0)	
L1D -202>	(4,24)	(44,1)	(9,99)	(202,2)	(6,1)	(-16,3)	(193,6)	(-6,3)	(5,1)	(-37,1)	(200,0)	(-10,0)	(-28,0)	(242,0)	(-41,1)	(1,0)	
L1D -201>	(112,31)	(-5,14)	(111,13)	(204,23)	(-1,5)	(6,119)	(-3,11)	(11,39)	(5,47)	(-6,41)	(108,73)	(3,9)	(-11,21)	(9,40)	(201,42)	(200,1)	
L1D -200>	(6,70)	(40,15)	(41,6)	(206,19)	(5,19)	(198,4)	(-3,4)	(200,10)	(-6,21)	(111,48)	(-38,31)	(106,4)	(107,5)	(-47,11)	(-11,8)	(197,2)	
L1D -199>	(-18,1)	(-37,1)	(41,25)	(9,0)	(-40,3)	(7,0)	(5,84)	(23,0)	(-4,1)	(199,0)	(105,0)	(40,1)	(0,0)	(198,1)	(1,0)	(1,0)	
L1D -198>	(109,10)	(104,3)	(40,75)	(-11,2)	(5,2)	(-41,1)	(4,2)	(198,3)	(-5,22)	(1,1)	(105,26)	(6,8)	(195,4)	(108,6)	(-6,12)	(-9,2)	
L1D -197>	(104,24)	(108,113)	(2,7)	(334,1)	(5,11)	(195,3)	(-6,2)	(197,19)	(0,2)	(21,4)	(-10,1)	(-11,1)	(-49,1)	(6,11)	(1,18)	(-42,8)	
L1D -196>	(107,75)	(-50,1)	(196,7)	(110,50)	(3,37)	(111,2)	(5,25)	(-6,20)	(6,5)	(1,36)	(333,6)	(-2,5)	(-12,1)	(103,5)	(20,2)	(-5,8)	
L1D -195>	(6,6)	(106,9)	(110,78)	(111,54)	(102,66)	(195,21)	(332,8)	(41,1)	(-6,18)	(1,18)	(105,33)	(19,3)	(-3,7)	(5,4)	(3,16)	(329,3)	
L1D -194>	(41,69)	(5,45)	(-6,2)	(194,12)	(105,36)	(1,6)	(111,41)	(0,7)	(108,5)	(332,7)	(107,1)	(6,24)	(9,19)	(101,1)	(110,3)	(3,6)	
L1D -193>	(329,13)	(193,11)	(17,1)	(9,3)	(104,4)	(-5,23)	(100,2)	(-1,3)	(-10,1)	(1,19)	(-3,6)	(-6,7)	(107,1)	(13,112)	(334,5)	(331,7)	
L1D -192>	(-6,74)	(192,72)	(102,31)	(5,24)	(103,15)	(-47,15)	(-5,86)	(328,39)	(107,46)	(329,39)	(108,25)	(99,2)	(-3,48)	(-53,7)	(1,3)	(16,1)	
L1D -191>	(191,67)	(-6,48)	(329,5)	(-5,92)	(105,3)	(5,2)	(102,16)	(-10,2)	(322,1)	(309,3)	(-3,6)	(108,3)	(16,1)	(319,2)	(-17,0)	(328,9)	
L1D -190>	(-1,1)	(-57,1)	(-6,2)	(-56,2)	(0,26)	(9,1)	(188,1)	(6,0)	(1,119)	(2,3)	(5,5)	(189,0)	(14,5)	(80,0)	(-49,0)	(13,0)	
L1D -189>	(192,1)	(5,68)	(-6,42)	(1,13)	(-5,12)	(188,1)	(-9,4)	(13,10)	(178,1)	(195,0)	(-1,3)	(-54,8)	(-4,0)	(6,0)	(190,4)	(187,1)	
L1D -188>	(-55,21)	(187,4)	(12,6)	(-6,4)	(5,30)	(0,6)	(190,16)	(8,1)	(188,7)	(44,110)	(184,11)	(1,5)	(13,4)	(4,4)	(11,3)	(177,2)	
L1D -187>	(13,97)	(-51,1)	(8,1)	(11,0)	(5,6)	(-6,1)	(-252,0)	(-52,1)	(184,0)	(-56,1)	(10,0)	(176,0)	(-5,1)	(12,0)	(1,0)	(1,0)	
L1D -186>	(-6,20)	(110,2)	(8,4)	(1,7)	(177,1)	(2,25)	(185,26)	(10,12)	(182,7)	(184,3)	(9,2)	(-2,2)	(12,2)	(5,3)	(-1,1)	(-53,1)	
L1D -185>	(1,48)	(65,2)	(5,3)	(184,1)	(-86,1)	(-6,3)	(185,3)	(-75,8)	(9,5)	(177,10)	(-54,1)	(0,2)	(2,2)	(8,7)	(10,1)	(188,1)	
L1D -184>	(8,21)	(-6,22)	(40,2)	(0,4)	(1,8)	(177,13)	(4,2)	(183,1)	(181,2)	(193,9)	(162,9)	(142,1)	(-72,1)	(-1,7)	(-5,1)	(184,1)	
L1D -183>	(5,2)	(-6,13)	(193,2)	(78,1)	(190,2)	(8,4)	(7,1)	(182,16)	(9,6)	(-2,2)	(177,1)	(58,4)	(179,2)	(0,5)	(48,1)	(412,1)	
L1D -182>	(13,10)	(180,2)	(-6,9)	(6,17)	(8,1)	(1,38)	(169,2)	(5,4)	(178,1)	(165,1)	(-77,1)	(181,3)	(187,3)	(0,1)	(4,3)	(7,1)	
L1D -181>	(282,2)	(-6,5)	(6,2)	(5,3)	(175,9)	(176,5)	(174,1)	(211,1)	(178,1)	(2,1)	(185,2)	(254,2)	(182,1)	(38,1)	(186,3)	(180,1)	
L1D -180>	(174,2)	(181,1)	(178,1)	(13,126)	(177,1)	(165,0)	(163,2)	(176,1)	(169,0)	(175,1)	(184,0)	(179,2)	(166,1)	(164,3)	(182,1)	(2,0)	
L1D -179>	(3,6)	(-99,1)	(2,1)	(171,3)	(175,13)	(182,5)	(174,16)	(176,12)	(1,3)	(163,3)	(173,2)	(177,4)	(165,6)	(-2,2)	(4,4)	(170,2)	
L1D -178>	(172,1)	(176,5)	(-1,14)	(175,22)	(165,4)	(173,8)	(184,2)	(169,3)	(164,11)	(1,2)	(174,10)	(-9,1)	(-105,3)	(161,1)	(170,3)	(-2,2)	
L1D -177>	(-2,6)	(171,14)	(175,35)	(161,1)	(-1,17)	(173,19)	(-15,5)	(172,8)	(170,13)	(164,16)	(-3,5)	(159,2)	(166,4)	(168,17)	(186,5)	(174,9)	
L1D -176>	(175,64)	(169,12)	(173,39)	(163,20)	(180,20)	(178,23)	(171,1)	(177,38)	(165,17)	(181,17)	(170,19)	(186,12)	(174,63)	(172,12)	(162,15)	(189,10)	
L1D -175>	(-17,1)	(1,10)	(-1,106)	(178,19)	(10,5)	(177,13)	(161,5)	(9,7)	(185,10)	(183,10)	(179,7)	(0,8)	(173,16)	(165,8)	(186,2)	(180,5)	
L1D -174>	(179,12)	(175,46)	(13,67)	(174,7)	(-2,26)	(1,20)	(178,71)	(172,14)	(6,10)	(185,3)	(184,5)	(167,7)	(176,5)	(177,33)	(128,1)	(8,4)	
L1D -173>	(175,12)	(174,10)	(316,21)	(177,16)	(159,2)	(173,4)	(181,4)	(178,10)	(171,7)	(-3,11)	(176,8)	(2,6)	(1,3)	(179,1)	(180,1)	(170,3)	
L1D -172>	(48,7)	(5,13)	(9,65)	(171,36)	(4,3)	(173,3)	(-4,6)	(172,3)	(175,17)	(180,2)	(174,8)	(176,13)	(177,3)	(-3,1)	(182,1)	(169,1)	
L1D -171>	(-127,7)	(170,50)	(0,28)	(-9,9)	(172,33)	(175,1)	(177,2)	(-3,4)	(251,1)	(181,2)	(189,1)	(-232,5)	(173,14)	(-2,1)	(167,1)	(163,2)	
L1D -170>	(-6,2)	(176,1)	(171,3)	(0,4)	(5,1)	(169,67)	(205,1)	(182,5)	(178,6)	(172,14)	(9,5)	(184,1)	(170,3)	(175,1)	(186,2)	(179,3)	
L1D -169>	(-7,5)	(170,4)	(2,122)	(1,5)	(183,1)	(76,2)	(178,4)	(-2,2)	(171,8)	(187,3)	(175,6)	(-4,2)	(210,1)	(180,1)	(-1,1)	(160,1)	
L1D -168>	(169,4)	(188,1)	(1,74)	(-1,4)	(9,102)	(176,3)	(170,4)	(171,1)	(-3,2)	(181,2)	(-7,3)	(175,5)	(-4,1)	(0,4)	(-138,1)	(208,1)	
L1D -167>	(1,36)	(0,9)	(175,11)	(41,3)	(40,25)	(166,80)	(169,10)	(5,4)	(9,127)	(167,10)	(31,1)	(-9,4)	(20,18)	(-3,5)	(170,1)	(-2,1)	
L1D -166>	(-10,12)	(1,13)	(9,1)	(167,10)	(38,13)	(175,9)	(-1,12)	(176,3)	(40,1)	(160,1)	(-4,1)	(168,3)	(1,0)	(1,0)	(1,0)	(1,0)	
L1D -165>	(0,16)	(-14,9)	(166,3)	(3,3)	(175,8)	(-10,2)	(72,18)	(-11,2)	(254,3)	(246,3)	(189,3)	(187,5)	(167,9)	(154,2)	(206,6)	(-9,2)	
L1D -164>	(5,4)	(165,5)	(175,8)	(-12,21)	(9,2)	(166,3)	(-1,5)	(167,1)	(-11,2)	(265,1)	(-4,1)	(-3,7)	(154,3)	(173,1)	(190,1)	(188,1)	
L1D -163>	(9,107)	(40,17)	(178,0)	(-1,1)	(-3,1)	(5,1)	(184,0)	(-9,0)	(4,1)	(175,0)	(165,0)	(-12,0)	(187,0)	(1,0)	(1,0)	(1,0)	
L1D -162>	(152,8)	(4,82)	(9,63)	(163,1)	(-4,9)	(-9,7)	(198,1)	(-14,1)	(40,9)	(0,0)	(190,0)	(175,0)	(5,1)	(167,0)	(159,0)	(1,0)	
L1D -161>	(9,16)	(20,20)	(162,14)	(-15,5)	(175,4)	(1,5)	(172,2)	(202,6)	(163,15)	(170,2)	(44,25)	(5,68)	(49,4)	(-14,4)	(3,1)	(191,1)	
L1D -160>	(5,25)	(0,12)	(1,14)	(158,4)	(2,11)	(-16,2)	(175,3)	(161,2)	(157,3)	(-125,2)	(156,7)	(3,11)	(-1,3)	(-13,4)	(174,3)	(-242,3)	
L1D -159>	(157,2)	(5,25)	(41,122)	(158,28)	(9,2)	(-3,2)	(160,1)	(175,1)	(149,1)	(-17,1)	(161,2)	(-2,1)	(1,0)	(1,0)	(1,0)	(1,0)	
L1D -158>	(1,10)	(198,1)	(-8,0)	(5,101)	(162,43)	(40,79)	(0,4)	(-39,7)	(-1,1)	(4,0)	(175,0)	(41,15)	(159,0)	(153,0)	(-3,24)	(174,0)	
L1D -157>	(-2,7)	(0,3)	(1,5)	(-1,9)	(328,1)	(118,4)	(4,11)	(157,1)	(160,2)	(-19,2)	(174,2)	(-121,4)	(-9,14)	(-8,1)	(-16,2)	(1,0)	
L1D -156>	(0,9)	(155,2)	(-19,2)	(175,3)	(64,16)	(159,5)	(-8,32)	(174,1)	(-10,9)	(152,1)	(2,10)	(-1,3)	(158,1)	(156,1)	(1,2)	(-3,8)	
L1D -155>	(-1,18)	(-21,2)	(2,2)	(-8,92)	(-3,21)	(187,1)	(-20,9)	(0,4)	(157,7)	(123,1)	(-2,1)	(283,1)	(150,1)	(1,0)	(1,0)	(1,0)	
L1D -154>	(146,2)	(94,21)	(158,1)	(88,1)	(153,3)	(92,4)	(5,53)	(41,76)	(9,17)	(174,2)	(143,3)	(93,12)	(-1,3)	(152,5)	(148,2)	(144,1)	
L1D -153>	(93,99)	(-22,1)	(154,2)	(0,9)	(157,4)	(90,3)	(142,2)	(91,12)	(-8,5)	(92,3)	(158,39)	(151,3)	(152,4)	(94,6)	(153,6)	(137,2)	
L1D -152>	(92,42)	(150,3)	(93,30)	(2,2)	(-1,3)	(137,4)	(89,8)	(141,1)	(91,2)	(139,1)	(145,2)	(151,1)	(79,1)	(1,1)	(143,4)	(24,1)	
L1D -151>	(91,11)	(146,4)	(150,5)	(1,6)	(93,3)	(88,3)	(140,11)	(141,1)	(142,4)	(154,4)	(89,9)	(149,3)	(145,4)	(82,1)	(134,1)	(90,3)	
L1D -150>	(90,14)	(-137,2)	(0,6)	(1,9)	(150,3)	(147,1)	(134,2)	(141,2)	(149,74)	(91,3)	(148,1)	(73,1)	(89,3)	(2,1)	(145,1)	(88,4)	
L1D -149>	(0,37)	(1,105)	(-150,2)	(145,3)	(-4,6)	(149,5)	(89,3)	(138,5)	(11,13)	(354,3)	(-10,25)	(154,1)	(136,1)	(140,2)	(139,3)	(-1,1)	
L1D -148>	(147,52)	(56,112)	(157,1)	(0,4)	(146,28)	(90,8)	(93,6)	(148,17)	(145,5)	(1,15)	(10,6)	(144,7)	(-3,3)	(139,6)	(153,2)	(151,5)	
L1D -147>	(146,5)	(1,17)	(219,2)	(9,2)	(-3,1)	(5,116)	(148,5)	(133,4)	(154,10)	(89,5)	(88,1)	(24,1)	(8,2)	(0,2)	(90,1)	(143,3)	
L1D -146>	(145,123)	(-1,3)	(140,1)	(104,24)	(139,1)	(154,2)	(148,1)	(0,7)	(147,7)	(102,1)	(103,4)	(93,2)	(142,1)	(146,1)	(91,1)	(135,1)	
L1D -145>	(143,5)	(56,4)	(103,49)	(2,5)	(7,13)	(1,5)	(-2,3)	(144,3)	(86,1)	(154,8)	(142,2)	(-1,4)	(96,7)	(104,15)	(-5,2)	(133,8)	
L1D -144>	(-1,6)	(102,39)	(138,2)	(148,4)	(144,10)	(103,2)	(6,5)	(0,7)	(141,5)	(143,23)	(104,7)	(177,5)	(133,1)	(1,37)	(7,3)	(155,8)	
L1D -143>	(-1,60)	(142,12)	(0,64)	(141,4)	(136,1)	(145,4)	(137,4)	(147,3)	(420,10)	(-5,7)	(132,9)	(154,3)	(91,5)	(100,4)	(144,19)	(103,7)	
L1D -142>	(100,29)	(144,4)	(98,16)	(83,1)	(82,2)	(-3,14)	(86,2)	(141,6)	(84,3)	(85,2)	(140,5)	(136,95)	(138,21)	(137,33)	(-4,3)	(103,3)	
L1D -141>	(1,94)	(90,5)	(-1,4)	(99,9)	(97,2)	(98,7)	(5,3)	(137,9)	(141,3)	(100,16)	(136,14)	(3,16)	(-7,2)	(139,41)	(130,6)	(128,6)	
L1D -140>	(2,1)	(-4,3)	(41,4)	(-191,3)	(-1,3)	(135,2)	(0,3)	(154,12)	(137,29)	(-10,37)	(96,2)	(100,4)	(136,7)	(132,3)	(145,2)	(133,3)	
L1D -139>	(1,50)	(154,1)	(138,21)	(132,4)	(91,2)	(137,27)	(139,3)	(141,4)	(79,3)	(0,4)	(-149,2)	(135,7)	(136,72)	(134,8)	(143,4)	(127,3)	
L1D -138>	(132,19)	(140,123)	(1,1)	(133,16)	(142,20)	(143,44)	(135,61)	(134,59)	(-1,46)	(137,67)	(138,54)	(141,52)	(136,94)	(129,6)	(139,96)	(4,26)	
L1D -137>	(86,7)	(2,6)	(9,1)	(131,6)	(140,124)	(139,81)	(-93,7)	(287,2)	(-3,2)	(-149,5)	(142,10)	(268,2)	(1,10)	(0,5)	(138,121)	(3,18)	
L1D -136>	(136,26)	(-93,13)	(-85,5)	(-195,11)	(139,56)	(2,10)	(134,21)	(1,46)	(142,9)	(0,17)	(-2,12)	(-198,1)	(-89,3)	(-1,10)	(44,67)	(133,5)	
L1D -135>	(-93,19)	(124,5)	(0,7)	(140,3)	(-153,6)	(141,6)	(137,72)	(-89,7)	(219,20)	(138,10)	(133,12)	(134,3)	(1,6)	(-1,2)	(2,113)	(154,1)	
L1D -134>	(1,70)	(123,35)	(133,69)	(129,9)	(122,15)	(-1,50)	(132,39)	(130,23)	(92,56)	(219,10)	(111,34)	(128,25)	(131,41)	(119,9)	(218,29)	(121,1)	
L1D -133>	(132,23)	(133,21)	(130,3)	(131,12)	(-1,21)	(129,3)	(91,33)	(217,31)	(218,63)	(219,7)	(146,2)	(100,2)	(51,1)	(96,1)	(73,4)	(1,112)	
L1D -132>	(90,30)	(126,16)	(133,56)	(-1,19)	(129,11)	(131,29)	(217,116)	(218,43)	(216,4)	(72,9)	(132,6)	(111,6)	(137,1)	(92,3)	(130,21)	(81,3)	
L1D -131>	(132,14)	(154,1)	(130,19)	(-1,8)	(133,18)	(129,16)	(-107,4)	(89,23)	(-93,7)	(9,20)	(216,18)	(2,4)	(-13,19)	(4,15)	(217,87)	(126,7)	
L1D -130>	(218,47)	(216,114)	(88,18)	(129,9)	(133,30)	(85,1)	(217,31)	(123,7)	(125,25)	(130,6)	(131,14)	(8,6)	(0,6)	(4,3)	(73,3)	(122,7)	
L1D -129>	(217,21)	(-149,60)	(125,3)	(165,1)	(132,13)	(99,2)	(123,2)	(131,9)	(0,3)	(134,9)	(127,3)	(87,2)	(218,38)	(98,3)	(-9,5)	(254,2)	
L1D -128>	(1,81)	(133,30)	(217,26)	(-93,12)	(-105,2)	(219,14)	(119,2)	(216,42)	(125,111)	(132,2)	(218,3)	(128,20)	(145,1)	(0,51)	(154,6)	(87,8)	
L1D -127>	(113,2)	(41,87)	(259,2)	(5,14)	(132,6)	(134,3)	(40,15)	(218,15)	(9,28)	(129,1)	(131,2)	(130,2)	(117,1)	(103,1)	(144,1)	(-204,1)	
L1D -126>	(40,1)	(4,95)	(125,9)	(119,14)	(220,60)	(122,3)	(111,12)	(127,5)	(-1,3)	(84,23)	(123,14)	(124,6)	(134,2)	(349,2)	(217,4)	(9,21)	
L1D -125>	(76,0)	(120,0)	(127,0)	(126,1)	(124,5)	(125,1)	(217,1)	(-1,2)	(132,0)	(219,4)	(43,0)	(122,2)	(2,1)	(8,70)	(123,2)	(4,5)	
L1D -124>	(127,51)	(1,5)	(218,78)	(-1,17)	(134,11)	(116,1)	(82,23)	(217,36)	(122,6)	(110,5)	(216,34)	(120,2)	(36,19)	(125,50)	(107,6)	(128,4)	
L1D -123>	(123,79)	(-4,1)	(0,8)	(217,11)	(331,2)	(-1,6)	(81,7)	(121,8)	(112,5)	(3,14)	(41,36)	(1,6)	(110,50)	(111,8)	(4,32)	(124,4)	
L1D -122>	(9,16)	(-3,3)	(50,1)	(-4,1)	(5,85)	(4,3)	(122,2)	(8,1)	(0,4)	(125,3)	(40,60)	(216,2)	(6,4)	(126,1)	(111,3)	(41,6)	
L1D -121>	(218,2)	(-3,3)	(4,46)	(215,2)	(111,1)	(9,59)	(-4,108)	(121,11)	(79,4)	(122,3)	(123,2)	(81,1)	(120,2)	(112,12)	(119,4)	(39,1)	
L1D -120>	(120,91)	(0,8)	(107,15)	(214,17)	(110,16)	(328,9)	(1,3)	(117,1)	(111,22)	(218,3)	(334,5)	(3,6)	(6,4)	(-6,24)	(-5,6)	(332,2)	
L1D -119>	(-212,12)	(67,1)	(213,42)	(-213,10)	(119,111)	(41,3)	(218,26)	(5,41)	(0,23)	(3,14)	(110,72)	(120,19)	(111,15)	(108,5)	(-1,26)	(117,23)	
L1D -118>	(118,56)	(-1,27)	(217,1)	(1,9)	(105,7)	(41,89)	(76,14)	(117,28)	(2,14)	(115,12)	(114,15)	(5,14)	(212,8)	(116,21)	(326,4)	(111,14)	
L1D -117>	(117,96)	(-39,13)	(113,6)	(-3,20)	(3,8)	(0,5)	(1,17)	(105,3)	(35,36)	(114,9)	(-4,1)	(107,3)	(218,5)	(5,12)	(111,7)	(-2,8)	
L1D -116>	(112,9)	(107,6)	(0,10)	(116,12)	(109,8)	(113,35)	(110,20)	(118,20)	(74,9)	(111,18)	(219,26)	(105,98)	(220,1)	(3,17)	(-1,11)	(1,5)	
L1D -115>	(218,51)	(118,1)	(-105,13)	(209,15)	(116,38)	(3,20)	(0,21)	(115,70)	(2,6)	(-1,4)	(217,15)	(112,72)	(73,3)	(55,60)	(113,37)	(216,14)	
L1D -114>	(114,88)	(219,7)	(-6,17)	(3,27)	(218,19)	(0,9)	(-5,6)	(110,39)	(-3,8)	(111,60)	(108,21)	(105,8)	(198,6)	(329,14)	(-1,1)	(208,18)	
L1D -113>	(332,1)	(113,90)	(5,14)	(218,13)	(2,13)	(84,42)	(110,59)	(105,12)	(41,21)	(108,26)	(217,12)	(111,32)	(207,9)	(119,6)	(3,13)	(107,7)	
L1D -112>	(2,10)	(1,11)	(218,20)	(112,77)	(-5,101)	(113,40)	(-6,4)	(108,31)	(110,43)	(217,19)	(339,3)	(-115,1)	(336,2)	(3,15)	(111,5)	(216,11)	
L1D -111>	(329,15)	(111,87)	(-3,9)	(3,12)	(0,28)	(200,4)	(332,14)	(216,23)	(-2,9)	(107,5)	(442,1)	(-6,12)	(105,9)	(108,18)	(110,10)	(-5,25)	
L1D -110>	(105,1)	(331,29)	(108,7)	(213,5)	(113,13)	(107,13)	(328,15)	(329,8)	(110,123)	(3,15)	(111,30)	(2,9)	(0,17)	(332,9)	(-3,18)	(116,14)	
L1D -109>	(329,7)	(111,22)	(109,113)	(198,12)	(-5,17)	(193,27)	(110,12)	(212,21)	(115,24)	(217,2)	(105,19)	(113,22)	(216,69)	(0,15)	(3,28)	(2,16)	
L1D -108>	(193,8)	(118,11)	(111,19)	(191,8)	(121,4)	(113,11)	(108,85)	(0,1)	(110,35)	(117,6)	(105,16)	(192,18)	(120,11)	(-6,67)	(-5,47)	(114,18)	
L1D -107>	(331,5)	(110,56)	(107,50)	(111,39)	(193,39)	(-108,7)	(200,21)	(65,67)	(120,23)	(13,11)	(3,7)	(108,1)	(113,17)	(212,13)	(192,17)	(-3,3)	
L1D -106>	(-5,7)	(106,49)	(-109,29)	(0,15)	(12,11)	(-110,10)	(3,32)	(1,70)	(102,27)	(117,16)	(111,29)	(109,26)	(-111,16)	(195,32)	(110,22)	(331,1)	
L1D -105>	(0,20)	(7,63)	(-111,34)	(191,5)	(-3,1)	(221,34)	(-5,97)	(114,117)	(110,32)	(111,87)	(194,19)	(198,12)	(105,111)	(-6,9)	(1,7)	(113,5)	
L1D -104>	(-112,13)	(193,123)	(-5,10)	(110,5)	(221,1)	(-6,8)	(-1,23)	(145,13)	(108,35)	(218,23)	(113,60)	(104,90)	(109,60)	(-113,22)	(-111,20)	(10,17)	
L1D -103>	(63,1)	(15,32)	(219,63)	(192,95)	(-112,7)	(231,2)	(-114,8)	(-6,6)	(-111,2)	(103,7)	(218,20)	(-113,17)	(225,4)	(-109,5)	(114,2)	(-5,27)	
L1D -102>	(191,92)	(102,14)	(-114,14)	(110,29)	(-3,8)	(145,3)	(-5,81)	(-113,6)	(192,22)	(-6,10)	(-2,1)	(111,23)	(-116,2)	(-115,5)	(218,3)	(146,6)	
L1D -101>	(102,35)	(68,94)	(142,8)	(1,5)	(-115,27)	(105,10)	(0,11)	(103,32)	(101,43)	(111,27)	(-3,10)	(-116,16)	(145,22)	(141,1)	(-1,4)	(16,2)	
L1D -100>	(0,9)	(89,7)	(11,5)	(-4,70)	(193,19)	(141,4)	(6,9)	(-115,5)	(1,10)	(-5,7)	(146,1)	(-116,21)	(110,2)	(-117,13)	(96,2)	(145,6)	
L1D -99>	(-4,73)	(-113,11)	(192,122)	(103,9)	(107,1)	(141,11)	(101,40)	(100,15)	(142,7)	(-5,21)	(99,28)	(-114,16)	(145,8)	(98,5)	(223,5)	(11,10)	
L1D -98>	(0,13)	(-119,61)	(1,4)	(141,14)	(124,3)	(101,7)	(-118,39)	(145,6)	(-3,19)	(4,4)	(-117,8)	(-2,25)	(191,28)	(192,20)	(-120,20)	(134,1)	
L1D -97>	(1,38)	(95,9)	(-26,5)	(8,89)	(103,1)	(-120,15)	(-118,4)	(13,1)	(101,4)	(99,6)	(-1,8)	(-7,33)	(221,1)	(104,2)	(0,1)	(-119,11)	
L1D -96>	(-29,3)	(99,4)	(-110,2)	(95,16)	(-8,14)	(17,43)	(146,5)	(1,65)	(224,9)	(-4,31)	(125,5)	(282,1)	(113,2)	(101,7)	(-1,2)	(98,5)	
L1D -95>	(99,102)	(1,3)	(146,2)	(-29,1)	(92,2)	(141,1)	(125,2)	(97,3)	(11,38)	(108,2)	(150,36)	(139,3)	(91,4)	(90,1)	(143,3)	(100,2)	
L1D -94>	(91,1)	(208,31)	(-4,67)	(15,8)	(217,32)	(-114,16)	(-119,25)	(215,45)	(89,64)	(-122,11)	(-116,30)	(209,38)	(-118,20)	(-8,12)	(218,39)	(211,89)	
L1D -93>	(146,4)	(94,84)	(51,29)	(-2,91)	(0,34)	(-108,59)	(9,5)	(221,5)	(90,7)	(124,3)	(93,15)	(92,4)	(91,3)	(144,4)	(-100,6)	(-1,1)	
L1D -92>	(51,30)	(93,39)	(0,32)	(90,90)	(50,35)	(145,1)	(150,8)	(-1,17)	(-124,24)	(130,10)	(132,23)	(151,10)	(133,9)	(131,14)	(95,34)	(52,8)	
L1D -91>	(8,107)	(0,1)	(-124,4)	(84,1)	(96,1)	(-7,3)	(93,1)	(1,3)	(2,2)	(45,1)	(92,1)	(132,1)	(51,2)	(130,1)	(-3,3)	(150,1)	
L1D -90>	(-4,11)	(-127,14)	(1,11)	(-105,4)	(93,21)	(0,6)	(-126,4)	(90,3)	(95,5)	(133,7)	(-8,117)	(152,1)	(6,9)	(48,6)	(-108,7)	(91,7)	
L1D -89>	(0,14)	(-112,95)	(-104,78)	(220,108)	(84,33)	(223,20)	(-108,10)	(145,1)	(-114,3)	(130,3)	(227,25)	(89,87)	(4,14)	(10,11)	(94,12)	(-1,7)	
L1D -88>	(115,0)	(-9,69)	(-2,1)	(0,7)	(133,2)	(94,1)	(89,0)	(91,0)	(-129,0)	(123,1)	(92,0)	(84,0)	(131,0)	(-130,0)	(1,6)	(-8,5)	
L1D -87>	(0,26)	(87,17)	(146,1)	(134,6)	(-116,7)	(-128,22)	(89,32)	(-130,38)	(130,12)	(88,50)	(1,41)	(221,14)	(-129,16)	(51,7)	(82,7)	(-111,3)	
L1D -86>	(-131,1)	(129,1)	(41,103)	(154,1)	(130,0)	(86,1)	(-4,2)	(134,0)	(88,0)	(83,0)	(-130,0)	(1,1)	(150,0)	(128,0)	(94,1)	(40,49)	
L1D -85>	(4,120)	(219,14)	(86,2)	(-131,11)	(221,4)	(-132,5)	(-130,10)	(1,4)	(-111,2)	(82,3)	(218,3)	(-2,1)	(-108,18)	(129,2)	(204,1)	(84,1)	
L1D -84>	(-109,23)	(218,35)	(84,56)	(-9,120)	(221,5)	(85,7)	(0,16)	(125,17)	(-133,54)	(146,18)	(87,43)	(109,36)	(158,1)	(-114,10)	(83,15)	(-132,46)	
L1D -83>	(40,9)	(82,104)	(1,69)	(5,74)	(-135,21)	(124,30)	(-1,37)	(84,27)	(9,21)	(0,26)	(138,74)	(144,11)	(127,1)	(-134,45)	(154,22)	(-111,38)	
L1D -82>	(-3,64)	(89,0)	(2,3)	(8,16)	(83,0)	(123,0)	(4,0)	(80,0)	(9,0)	(41,0)	(127,0)	(134,1)	(103,0)	(1,1)	(-1,1)	(154,1)	
L1D -81>	(-4,5)	(100,1)	(94,1)	(4,9)	(78,1)	(21,1)	(82,1)	(-1,1)	(-13,0)	(77,0)	(126,0)	(117,1)	(5,1)	(40,0)	(79,1)	(9,71)	
L1D -80>	(84,77)	(80,0)	(31,3)	(5,4)	(9,3)	(6,7)	(0,1)	(154,0)	(83,1)	(123,1)	(-1,2)	(146,1)	(125,5)	(4,2)	(77,1)	(153,1)	
L1D -79>	(125,1)	(124,8)	(83,120)	(119,4)	(184,24)	(78,17)	(0,4)	(1,41)	(-1,5)	(77,20)	(81,9)	(-14,3)	(111,31)	(19,6)	(146,3)	(-2,95)	
L1D -78>	(2,7)	(1,69)	(-3,34)	(152,1)	(-6,1)	(82,0)	(100,0)	(50,0)	(-1,9)	(75,2)	(73,0)	(154,0)	(9,1)	(80,7)	(76,0)	(5,1)	
L1D -77>	(0,4)	(154,1)	(41,1)	(79,4)	(118,1)	(1,3)	(14,11)	(73,1)	(153,1)	(-39,11)	(40,9)	(-4,82)	(-9,9)	(5,2)	(81,4)	(2,11)	
L1D -76>	(2,20)	(-1,82)	(154,11)	(146,1)	(80,4)	(77,20)	(76,56)	(75,92)	(73,92)	(0,22)	(134,52)	(116,9)	(117,29)	(74,24)	(-5,20)	(-6,10)	
L1D -75>	(2,52)	(208,9)	(84,85)	(18,26)	(263,1)	(7,2)	(94,5)	(154,9)	(0,16)	(77,17)	(34,5)	(1,3)	(35,12)	(44,11)	(-6,5)	(73,4)	
L1D -74>	(4,6)	(3,1)	(-3,78)	(-2,51)	(43,5)	(-1,3)	(69,13)	(-7,2)	(112,1)	(75,46)	(73,5)	(32,29)	(74,8)	(111,20)	(84,10)	(61,5)	
L1D -73>	(-2,107)	(128,32)	(1,82)	(116,43)	(-1,27)	(71,1)	(74,10)	(31,6)	(2,10)	(4,14)	(14,50)	(118,36)	(75,16)	(21,23)	(9,38)	(20,7)	
L1D -72>	(93,2)	(76,15)	(0,8)	(-5,2)	(-2,4)	(1,103)	(6,1)	(75,1)	(74,2)	(-1,31)	(29,2)	(131,1)	(28,1)	(117,4)	(257,18)	(134,1)	
L1D -71>	(-3,67)	(-6,4)	(129,1)	(1,102)	(75,1)	(65,24)	(-4,3)	(-5,0)	(29,0)	(150,0)	(-1,4)	(118,2)	(21,0)	(-10,1)	(132,0)	(0,0)	
L1D -70>	(21,3)	(132,1)	(-7,93)	(-4,1)	(7,2)	(69,5)	(-2,4)	(-3,29)	(4,1)	(25,2)	(73,1)	(72,1)	(5,1)	(-1,1)	(61,1)	(0,0)	
L1D -69>	(1,125)	(131,7)	(132,6)	(-14,15)	(154,4)	(27,12)	(43,17)	(67,5)	(21,1)	(61,11)	(126,8)	(73,8)	(94,7)	(-1,125)	(0,13)	(74,10)	
L1D -68>	(-3,16)	(72,76)	(75,2)	(-82,0)	(17,0)	(66,1)	(-4,1)	(61,2)	(26,3)	(-2,4)	(43,1)	(-1,0)	(-255,0)	(94,0)	(69,0)	(8,0)	
L1D -67>	(2,35)	(-3,47)	(69,32)	(43,1)	(7,1)	(-2,0)	(1,16)	(25,2)	(15,8)	(42,1)	(-10,1)	(122,8)	(-1,67)	(-6,17)	(-8,1)	(66,3)	
L1D -66>	(25,1)	(94,1)	(62,1)	(-8,1)	(63,1)	(6,2)	(43,5)	(61,1)	(-7,115)	(1,1)	(-4,1)	(-6,1)	(21,4)	(64,0)	(24,6)	(4,1)	
L1D -65>	(-89,1)	(64,27)	(1,105)	(-8,7)	(31,14)	(43,28)	(66,10)	(13,28)	(-69,6)	(154,4)	(42,1)	(23,32)	(6,16)	(0,2)	(62,5)	(107,15)	
L1D -64>	(-90,1)	(0,16)	(57,1)	(15,2)	(69,1)	(22,2)	(1,75)	(45,1)	(59,1)	(-20,1)	(4,1)	(-5,1)	(43,3)	(-4,1)	(72,1)	(61,7)	
L1D -63>	(0,86)	(-8,10)	(-1,88)	(63,22)	(3,1)	(62,33)	(42,8)	(-11,3)	(-7,6)	(1,57)	(43,84)	(61,14)	(21,64)	(59,9)	(58,22)	(-89,2)	
L1D -62>	(2,88)	(52,1)	(1,2)	(-2,27)	(-1,6)	(-88,1)	(-92,1)	(20,5)	(61,1)	(59,1)	(56,8)	(0,2)	(43,3)	(58,2)	(60,1)	(53,1)	
L1D -61>	(-218,6)	(1,89)	(-3,20)	(43,22)	(19,69)	(60,15)	(42,12)	(-93,6)	(69,1)	(62,4)	(58,16)	(-217,2)	(59,51)	(-219,5)	(48,6)	(-1,12)	
L1D -60>	(43,17)	(5,11)	(0,87)	(-3,29)	(55,16)	(8,16)	(4,17)	(57,46)	(-2,58)	(60,10)	(-4,13)	(59,79)	(62,79)	(63,60)	(1,1)	(67,17)	
L1D -59>	(42,15)	(63,44)	(17,70)	(0,24)	(43,1)	(-8,29)	(1,106)	(60,27)	(-218,6)	(58,46)	(-1,47)	(-220,3)	(57,15)	(47,8)	(-219,11)	(48,32)	
L1D -58>	(15,2)	(-4,5)	(1,6)	(42,2)	(0,5)	(-8,5)	(-2,118)	(-6,24)	(59,13)	(60,5)	(44,10)	(16,40)	(2,92)	(43,7)	(-218,5)	(40,4)	
L1D -57>	(3,1)	(42,19)	(54,6)	(15,53)	(56,9)	(1,16)	(61,90)	(43,21)	(-1,127)	(46,14)	(9,25)	(-2,14)	(-218,10)	(16,18)	(55,8)	(59,5)	
L1D -56>	(65,1)	(-94,1)	(4,2)	(54,1)	(47,1)	(-4,3)	(-2,100)	(59,1)	(14,0)	(56,0)	(61,0)	(41,1)	(1,0)	(55,3)	(43,0)	(42,1)	
L1D -55>	(-2,66)	(12,1)	(-1,4)	(1,11)	(42,3)	(3,1)	(13,15)	(53,3)	(58,1)	(-18,1)	(-94,1)	(0,2)	(43,9)	(57,2)	(14,2)	(2,1)	
L1D -54>	(1,110)	(-4,7)	(10,27)	(11,29)	(7,6)	(59,1)	(49,15)	(43,46)	(-84,47)	(53,6)	(42,13)	(-5,14)	(56,6)	(14,33)	(4,26)	(12,44)	
L1D -53>	(59,1)	(0,45)	(1,98)	(-1,6)	(4,95)	(51,38)	(-3,59)	(11,70)	(58,8)	(42,19)	(43,28)	(-84,19)	(-18,37)	(60,24)	(10,52)	(12,9)	
L1D -52>	(92,16)	(-1,56)	(1,34)	(10,99)	(50,24)	(7,3)	(51,42)	(94,6)	(45,4)	(9,2)	(-85,12)	(247,8)	(72,1)	(42,3)	(47,2)	(43,24)	
L1D -51>	(4,21)	(-85,108)	(-1,67)	(53,18)	(52,71)	(9,83)	(39,120)	(50,91)	(1,77)	(92,23)	(51,111)	(-9,13)	(-4,2)	(49,64)	(40,27)	(56,71)	
L1D -50>	(1,13)	(43,9)	(50,16)	(0,2)	(-5,14)	(3,27)	(51,14)	(-219,2)	(-4,5)	(-1,6)	(-2,7)	(-218,6)	(8,4)	(-10,1)	(-3,46)	(14,79)	
L1D -49>	(49,80)	(0,19)	(44,21)	(6,11)	(9,10)	(43,46)	(1,52)	(2,35)	(-218,12)	(-1,1)	(-219,9)	(12,5)	(4,9)	(45,6)	(-9,7)	(46,13)	
L1D -48>	(-9,107)	(46,3)	(1,1)	(36,0)	(-10,2)	(40,0)	(55,0)	(4,0)	(47,1)	(6,1)	(50,1)	(3,1)	(2,1)	(-1,1)	(43,1)	(48,5)	
L1D -47>	(5,2)	(0,110)	(1,2)	(2,28)	(3,3)	(46,1)	(58,1)	(49,1)	(-2,2)	(7,0)	(35,1)	(47,10)	(45,3)	(43,5)	(41,0)	(42,1)	
L1D -46>	(43,1)	(41,41)	(-3,124)	(40,6)	(-1,34)	(-88,1)	(-95,1)	(59,1)	(9,1)	(-219,3)	(-5,16)	(-4,1)	(-7,1)	(4,3)	(46,5)	(1,46)	
L1D -45>	(-4,41)	(40,1)	(5,23)	(-2,40)	(41,50)	(27,5)	(1,11)	(-1,28)	(4,19)	(47,10)	(43,44)	(3,51)	(-5,70)	(9,31)	(-9,41)	(25,8)	
L1D -44>	(38,1)	(4,11)	(6,9)	(37,5)	(40,32)	(44,95)	(35,6)	(2,12)	(29,16)	(43,8)	(-1,24)	(41,34)	(48,15)	(47,4)	(42,11)	(-3,19)	
L1D -43>	(-3,20)	(47,126)	(-1,34)	(-2,70)	(42,45)	(41,30)	(30,12)	(2,12)	(1,29)	(38,18)	(40,38)	(37,14)	(27,1)	(-4,12)	(39,22)	(6,18)	
L1D -42>	(43,47)	(41,88)	(3,6)	(42,25)	(2,94)	(-3,40)	(44,62)	(37,18)	(-1,65)	(40,86)	(48,1)	(-8,11)	(-4,12)	(39,43)	(1,48)	(45,54)	
L1D -41>	(35,1)	(43,23)	(-2,11)	(45,7)	(-9,12)	(-1,31)	(42,12)	(38,11)	(47,19)	(9,41)	(1,33)	(49,10)	(40,119)	(0,19)	(5,37)	(39,11)	
L1D -40>	(44,26)	(38,1)	(4,123)	(41,12)	(-7,3)	(1,11)	(43,79)	(-219,3)	(40,16)	(81,6)	(-2,6)	(-3,6)	(45,19)	(-1,9)	(42,7)	(39,73)	
L1D -39>	(44,6)	(-3,4)	(39,11)	(38,73)	(-1,22)	(46,1)	(83,1)	(41,7)	(-5,5)	(-6,1)	(84,2)	(6,2)	(-2,1)	(42,2)	(29,1)	(25,1)	
L1D -38>	(-5,88)	(-3,10)	(32,17)	(4,53)	(1,20)	(11,33)	(38,50)	(-92,5)	(40,8)	(41,18)	(37,1)	(39,8)	(6,6)	(-1,18)	(0,5)	(42,19)	
L1D -37>	(5,13)	(-1,46)	(0,49)	(-4,11)	(1,24)	(31,14)	(50,1)	(37,96)	(38,21)	(14,30)	(-2,29)	(39,15)	(42,21)	(2,57)	(40,59)	(41,24)	
L1D -36>	(5,10)	(40,74)	(1,20)	(42,4)	(44,1)	(38,26)	(-1,87)	(-3,42)	(36,36)	(94,3)	(7,20)	(35,10)	(41,12)	(13,13)	(39,6)	(9,5)	
L1D -35>	(-3,75)	(52,1)	(41,3)	(30,0)	(29,0)	(1,2)	(38,0)	(37,0)	(36,0)	(-4,0)	(35,3)	(34,0)	(-2,0)	(-93,0)	(-1,36)	(42,0)	
L1D -34>	(-1,9)	(39,1)	(34,66)	(33,13)	(1,5)	(-7,64)	(4,17)	(0,3)	(38,8)	(35,4)	(-3,22)	(32,37)	(11,28)	(42,10)	(-6,6)	(-4,104)	
L1D -33>	(42,2)	(1,2)	(34,2)	(10,4)	(33,11)	(40,1)	(-9,1)	(44,1)	(32,0)	(-7,0)	(2,3)	(37,98)	(-1,12)	(-3,1)	(35,0)	(41,0)	
L1D -32>	(-1,84)	(42,5)	(-8,7)	(31,30)	(-2,13)	(4,1)	(-3,10)	(34,5)	(1,19)	(0,8)	(32,61)	(41,12)	(40,15)	(36,18)	(-10,12)	(30,6)	
L1D -31>	(48,1)	(-3,93)	(9,16)	(0,43)	(-5,44)	(1,11)	(8,1)	(-1,4)	(-6,4)	(5,17)	(-8,8)	(6,1)	(-4,1)	(4,14)	(31,11)	(41,1)	
L1D -30>	(1,7)	(30,8)	(-10,7)	(-5,100)	(-1,35)	(4,10)	(2,1)	(-6,3)	(3,6)	(-96,1)	(-4,28)	(8,8)	(-11,5)	(41,4)	(-3,4)	(-12,4)	
L1D -29>	(1,7)	(42,6)	(6,63)	(2,24)	(28,5)	(30,1)	(5,5)	(-1,17)	(7,4)	(8,13)	(31,7)	(29,47)	(32,86)	(-219,9)	(4,2)	(41,7)	
L1D -28>	(30,6)	(-4,30)	(41,8)	(5,9)	(0,44)	(1,75)	(2,7)	(-13,7)	(29,9)	(20,1)	(-12,11)	(-1,12)	(28,58)	(-14,8)	(34,3)	(3,18)	
L1D -27>	(0,17)	(1,53)	(27,77)	(26,19)	(8,97)	(-1,21)	(-51,12)	(28,5)	(-97,5)	(29,23)	(-14,5)	(43,1)	(57,2)	(-15,14)	(-13,4)	(6,13)	
L1D -26>	(27,8)	(1,112)	(67,7)	(26,21)	(29,1)	(4,2)	(2,7)	(20,10)	(6,11)	(-2,44)	(5,73)	(22,5)	(-10,33)	(-6,13)	(-1,26)	(0,18)	
L1D -25>	(24,14)	(1,14)	(2,10)	(25,40)	(5,13)	(4,10)	(-7,25)	(0,12)	(-42,1)	(21,2)	(-1,13)	(-98,5)	(-10,68)	(-6,28)	(41,17)	(6,7)	
L1D -24>	(-1,7)	(-99,2)	(41,3)	(2,6)	(-3,2)	(-4,95)	(0,13)	(3,61)	(1,14)	(24,19)	(-18,1)	(-7,8)	(-8,6)	(4,9)	(-6,11)	(-2,5)	
L1D -23>	(1,73)	(6,44)	(21,15)	(17,40)	(2,17)	(0,38)	(27,33)	(18,13)	(-7,97)	(-42,15)	(-1,58)	(-18,1)	(22,48)	(42,3)	(23,121)	(20,24)	
L1D -22>	(4,24)	(25,2)	(22,6)	(1,8)	(0,4)	(-6,1)	(5,21)	(6,4)	(-9,70)	(23,4)	(-7,5)	(-1,4)	(20,6)	(21,4)	(19,2)	(18,4)	
L1D -21>	(29,2)	(5,2)	(20,1)	(-1,91)	(18,5)	(21,3)	(-332,1)	(3,1)	(2,1)	(0,8)	(177,1)	(15,21)	(-10,11)	(6,4)	(1,9)	(4,2)	
L1D -20>	(1,14)	(20,124)	(-4,3)	(-42,4)	(5,17)	(15,6)	(3,10)	(14,3)	(21,7)	(-41,2)	(4,5)	(179,1)	(-332,3)	(6,9)	(-292,1)	(-2,4)	
L1D -19>	(-9,7)	(13,8)	(9,3)	(-2,61)	(6,10)	(1,6)	(-1,1)	(7,8)	(15,11)	(17,4)	(3,4)	(4,88)	(14,5)	(8,27)	(-42,8)	(16,8)	
L1D -18>	(1,51)	(59,1)	(29,8)	(17,57)	(15,24)	(5,9)	(4,99)	(12,8)	(3,59)	(14,19)	(-42,11)	(11,21)	(21,21)	(6,14)	(-60,6)	(-24,7)	
L1D -17>	(7,3)	(1,119)	(5,6)	(-42,3)	(3,6)	(11,7)	(-6,3)	(21,1)	(4,74)	(2,20)	(6,9)	(0,4)	(-5,71)	(15,7)	(13,15)	(28,3)	
L1D -16>	(6,5)	(-6,60)	(21,10)	(-5,115)	(1,61)	(2,11)	(16,6)	(3,30)	(26,3)	(-40,1)	(4,41)	(7,5)	(11,7)	(63,25)	(-1,19)	(0,5)	
L1D -15>	(1,31)	(4,52)	(17,4)	(13,12)	(2,20)	(0,87)	(10,8)	(-40,1)	(-42,5)	(11,28)	(5,29)	(6,27)	(9,14)	(12,15)	(93,8)	(43,3)	
L1D -14>	(1,51)	(4,76)	(23,8)	(5,23)	(14,61)	(0,11)	(6,17)	(8,16)	(56,14)	(-2,29)	(-42,10)	(17,1)	(9,19)	(16,9)	(2,15)	(282,5)	
L1D -13>	(1,12)	(-9,73)	(6,8)	(22,1)	(10,6)	(-5,13)	(-42,5)	(0,2)	(12,1)	(11,2)	(3,10)	(-31,1)	(5,6)	(2,8)	(13,20)	(4,33)	
L1D -12>	(1,55)	(43,1)	(-10,49)	(6,21)	(12,5)	(-42,6)	(-5,119)	(8,4)	(5,13)	(2,39)	(0,8)	(11,6)	(3,14)	(4,34)	(-6,11)	(96,7)	
L1D -11>	(-42,2)	(-8,12)	(0,21)	(47,11)	(3,17)	(26,17)	(18,13)	(20,12)	(11,20)	(-4,9)	(15,10)	(5,90)	(1,53)	(6,46)	(4,116)	(12,35)	
L1D -10>	(4,83)	(2,11)	(6,13)	(1,22)	(5,17)	(14,5)	(25,11)	(7,3)	(18,7)	(3,13)	(77,7)	(-2,10)	(41,12)	(9,16)	(8,3)	(-42,1)	
L1D -9>	(5,11)	(1,24)	(6,5)	(18,26)	(61,28)	(9,112)	(-3,25)	(24,9)	(13,16)	(65,1)	(-1,66)	(2,20)	(0,7)	(4,127)	(15,17)	(7,6)	
L1D -8>	(-8,11)	(46,1)	(14,124)	(-3,2)	(-6,1)	(1,9)	(-1,5)	(-2,1)	(0,12)	(7,3)	(93,4)	(2,10)	(-11,1)	(4,6)	(8,12)	(10,3)	
L1D -7>	(6,14)	(30,82)	(0,49)	(2,14)	(1,32)	(56,20)	(66,32)	(7,12)	(-42,1)	(-1,64)	(4,10)	(-4,15)	(15,8)	(-8,7)	(-10,6)	(3,12)	
L1D -6>	(6,6)	(-7,2)	(4,5)	(1,11)	(5,12)	(20,2)	(-42,1)	(-3,91)	(-11,1)	(0,1)	(-5,8)	(-2,3)	(-1,2)	(41,8)	(-13,1)	(-9,1)	
L1D -5>	(41,5)	(-34,3)	(43,3)	(110,1)	(-1,7)	(4,21)	(-3,7)	(1,4)	(6,13)	(9,21)	(8,3)	(5,110)	(-6,6)	(16,2)	(77,3)	(-8,7)	
L1D -4>	(-6,17)	(1,121)	(3,23)	(11,8)	(-3,26)	(4,35)	(-11,68)	(-1,14)	(-39,1)	(5,8)	(-7,14)	(2,26)	(-4,62)	(0,41)	(-5,50)	(-15,34)	
L1D -3>	(-2,6)	(0,27)	(41,1)	(7,125)	(6,3)	(4,22)	(43,5)	(20,8)	(-11,5)	(-7,7)	(1,120)	(-5,9)	(-1,7)	(32,9)	(14,7)	(-4,6)	
L1D -2>	(41,2)	(-8,2)	(0,81)	(-9,3)	(-1,2)	(-7,9)	(-2,7)	(-4,4)	(-19,1)	(1,29)	(-11,1)	(-6,3)	(2,4)	(-5,10)	(-15,4)	(-3,5)	
L1D -1>	(-7,10)	(5,69)	(-41,1)	(20,3)	(-11,5)	(-6,2)	(0,62)	(41,3)	(-15,5)	(-1,51)	(-3,97)	(2,8)	(1,120)	(4,10)	(-4,20)	(-2,7)	
L1D 0>	(0,98)	(1,22)	(-221,1)	(-8,2)	(9,2)	(-2,7)	(4,1)	(2,7)	(-3,1)	(-7,5)	(-5,1)	(-1,1)	(14,1)	(105,0)	(-105,1)	(49,0)	
L1D 1>	(1,79)	(2,2)	(5,1)	(-11,3)	(-25,1)	(4,6)	(-113,0)	(7,0)	(-2,2)	(-218,0)	(3,17)	(0,10)	(-1,24)	(-4,3)	(11,1)	(-3,3)	
L1D 2>	(-3,20)	(48,6)	(-42,1)	(-7,3)	(-1,4)	(6,2)	(-176,4)	(-6,112)	(3,5)	(0,10)	(8,7)	(23,1)	(1,36)	(-174,1)	(-2,26)	(-4,3)	
L1D 3>	(11,0)	(-2,1)	(-1,70)	(2,2)	(-13,5)	(1,3)	(-4,2)	(16,1)	(-11,3)	(7,0)	(3,1)	(-3,2)	(18,0)	(6,6)	(0,1)	(-7,1)	
L1D 4>	(-16,3)	(1,29)	(5,80)	(-6,10)	(31,6)	(9,78)	(-35,22)	(45,1)	(-7,11)	(-5,16)	(-8,9)	(-46,32)	(-12,36)	(2,12)	(6,92)	(-4,12)	
L1D 5>	(-6,11)	(44,1)	(6,32)	(-41,3)	(-199,2)	(35,13)	(4,23)	(-7,6)	(-5,77)	(-13,3)	(-59,1)	(31,2)	(-244,3)	(9,36)	(5,2)	(-4,2)	
L1D 6>	(12,94)	(-14,1)	(-11,11)	(-12,2)	(-111,1)	(5,22)	(0,11)	(6,4)	(-503,3)	(-1,3)	(2,5)	(-7,2)	(-5,3)	(9,2)	(1,87)	(-6,6)	
L1D 7>	(2,101)	(-5,1)	(-176,1)	(-7,2)	(13,1)	(-6,4)	(-42,2)	(41,1)	(59,1)	(-72,1)	(-8,1)	(-4,3)	(-2,0)	(6,0)	(-73,0)	(1,3)	
L1D 8>	(-2,18)	(47,13)	(-1,32)	(-6,12)	(1,55)	(-3,12)	(7,24)	(6,1)	(-7,14)	(-15,20)	(11,19)	(-8,99)	(3,15)	(8,98)	(5,8)	(-4,23)	
L1D 9>	(-2,8)	(4,26)	(-30,16)	(-22,31)	(-13,39)	(5,20)	(9,116)	(-31,11)	(40,24)	(-21,36)	(-12,63)	(-17,7)	(-7,9)	(-26,8)	(215,1)	(31,10)	
L1D 10>	(-11,12)	(-3,78)	(-8,49)	(-42,13)	(0,30)	(-9,12)	(-10,9)	(-7,6)	(41,1)	(-6,18)	(-2,41)	(-4,51)	(33,5)	(-1,35)	(2,15)	(4,17)	
L1D 11>	(-42,8)	(-8,10)	(-6,13)	(-12,1)	(-2,11)	(0,26)	(-9,12)	(-11,11)	(-4,69)	(2,4)	(-1,18)	(36,34)	(-3,13)	(47,8)	(-16,20)	(-10,33)	
L1D 12>	(6,1)	(-5,2)	(39,2)	(13,77)	(-10,1)	(0,1)	(-503,3)	(-12,3)	(-2,2)	(-8,1)	(2,0)	(190,0)	(5,3)	(-11,5)	(-1,0)	(7,0)	
L1D 13>	(-6,3)	(-8,106)	(-1,2)	(-2,1)	(-51,1)	(-42,2)	(94,1)	(-22,1)	(-55,1)	(-12,3)	(40,6)	(-18,2)	(20,2)	(13,2)	(59,7)	(0,2)	
L1D 14>	(-2,2)	(6,106)	(-499,4)	(-17,1)	(-1,2)	(-11,2)	(-7,1)	(-14,1)	(23,3)	(-13,7)	(-19,1)	(-4,9)	(-6,1)	(-9,1)	(-15,1)	(0,11)	
L1D 15>	(-14,80)	(-10,53)	(0,25)	(-2,8)	(-13,16)	(-19,1)	(-11,44)	(4,23)	(-42,17)	(23,15)	(-12,26)	(-6,9)	(-4,66)	(-16,13)	(-1,34)	(32,8)	
L1D 16>	(-15,10)	(47,82)	(-58,1)	(-14,8)	(0,44)	(41,4)	(-13,13)	(-42,13)	(-1,61)	(-6,5)	(-9,4)	(-11,4)	(23,19)	(-7,4)	(-2,9)	(-4,31)	
L1D 17>	(-16,85)	(-11,70)	(-15,23)	(-42,19)	(-1,3)	(13,19)	(0,21)	(-17,6)	(-2,30)	(-14,18)	(-13,30)	(2,26)	(-22,6)	(-44,1)	(1,2)	(4,5)	
L1D 18>	(-42,34)	(-16,32)	(0,23)	(-17,28)	(-11,70)	(72,76)	(-13,28)	(1,20)	(-14,26)	(-176,1)	(-1,13)	(-19,15)	(-6,15)	(-3,59)	(-2,2)	(-15,56)	
L1D 19>	(-18,25)	(-2,32)	(36,13)	(-1,88)	(-17,23)	(-15,105)	(1,21)	(72,8)	(-4,126)	(-42,66)	(6,8)	(25,3)	(-11,14)	(-16,27)	(24,7)	(41,15)	
L1D 20>	(-16,100)	(-2,12)	(-19,66)	(-18,7)	(-15,13)	(-17,13)	(-6,8)	(-3,6)	(23,1)	(5,23)	(-21,3)	(-20,90)	(1,4)	(-42,9)	(-5,10)	(-1,9)	
L1D 21>	(-18,13)	(-17,11)	(8,24)	(-19,21)	(-20,7)	(-1,23)	(-42,21)	(-22,20)	(-63,1)	(-15,95)	(-25,5)	(-2,44)	(1,6)	(-4,14)	(-21,6)	(-3,14)	
L1D 22>	(-18,69)	(-13,51)	(1,9)	(-1,30)	(-176,1)	(-17,32)	(-3,47)	(-23,52)	(-20,16)	(4,46)	(-4,84)	(0,10)	(-2,28)	(-19,43)	(-42,54)	(-21,34)	
L1D 23>	(4,125)	(-3,4)	(21,1)	(-18,5)	(-23,1)	(-4,11)	(-42,7)	(-14,6)	(-20,10)	(-2,21)	(-19,15)	(-22,15)	(1,3)	(-24,29)	(-5,3)	(-21,21)	
L1D 24>	(-20,14)	(-1,117)	(-24,11)	(-6,10)	(-21,40)	(-25,36)	(1,11)	(-22,10)	(-66,1)	(-15,65)	(0,4)	(-5,28)	(-42,32)	(-4,15)	(-3,30)	(-19,3)	
L1D 25>	(16,14)	(-27,8)	(-2,34)	(2,7)	(-21,38)	(-26,29)	(-4,28)	(-24,6)	(1,10)	(-23,8)	(-1,9)	(-42,37)	(-22,7)	(-40,34)	(-14,1)	(-15,97)	
L1D 26>	(17,2)	(-1,9)	(-41,12)	(-15,121)	(-27,24)	(5,5)	(-2,5)	(-42,45)	(12,1)	(-22,13)	(-23,10)	(1,2)	(0,6)	(-25,5)	(-3,20)	(-21,8)	
L1D 27>	(-35,2)	(-42,88)	(-4,44)	(-15,115)	(-41,27)	(-40,19)	(-29,7)	(-17,3)	(-13,4)	(12,13)	(-28,42)	(-23,10)	(-25,26)	(0,11)	(-24,13)	(1,9)	
L1D 28>	(-27,9)	(-29,72)	(1,4)	(-42,93)	(-30,1)	(0,9)	(-9,1)	(-5,29)	(-40,20)	(-41,27)	(-1,35)	(11,14)	(-43,2)	(-26,33)	(12,6)	(2,6)	
L1D 29>	(1,22)	(-28,39)	(-8,5)	(-30,41)	(2,21)	(11,1)	(-31,12)	(-2,5)	(-42,108)	(-24,5)	(-25,10)	(-6,13)	(3,8)	(-40,25)	(-1,14)	(0,17)	
L1D 30>	(6,1)	(-27,1)	(-1,2)	(-42,15)	(-3,1)	(9,1)	(-34,2)	(3,1)	(-33,92)	(-31,5)	(4,38)	(-32,5)	(0,5)	(1,1)	(2,2)	(-40,2)	
L1D 31>	(40,73)	(0,2)	(41,36)	(-27,1)	(-43,0)	(-42,11)	(4,8)	(-60,1)	(1,2)	(-6,2)	(-41,4)	(-40,3)	(9,0)	(10,2)	(6,0)	(-32,5)	
L1D 32>	(-31,115)	(-12,2)	(9,3)	(-170,2)	(-27,33)	(4,3)	(-34,2)	(0,3)	(-33,20)	(10,4)	(-1,20)	(-42,57)	(1,3)	(-29,15)	(-36,8)	(-26,4)	
L1D 33>	(8,8)	(2,11)	(13,1)	(-33,19)	(-2,11)	(0,16)	(1,9)	(-60,6)	(-42,121)	(-39,3)	(-38,4)	(-40,34)	(4,12)	(-34,40)	(-41,15)	(-1,55)	
L1D 34>	(1,26)	(-41,7)	(0,29)	(5,3)	(-42,92)	(-35,43)	(-39,1)	(-36,3)	(-40,9)	(-34,7)	(6,3)	(3,3)	(-33,2)	(-1,17)	(7,7)	(-5,3)	
L1D 35>	(41,64)	(-121,1)	(-14,1)	(-42,3)	(6,1)	(-162,1)	(-43,0)	(-41,0)	(40,2)	(5,3)	(0,0)	(2,0)	(-36,3)	(13,0)	(-202,1)	(-6,0)	
L1D 36>	(40,59)	(4,112)	(1,1)	(-34,9)	(-35,1)	(23,1)	(-38,1)	(0,3)	(-41,4)	(5,3)	(-40,3)	(-37,13)	(-32,4)	(-42,16)	(-30,6)	(-43,3)	
L1D 37>	(-35,109)	(-37,1)	(3,1)	(-43,1)	(-39,2)	(-38,12)	(6,2)	(2,1)	(-42,14)	(23,1)	(-34,1)	(-60,1)	(-41,1)	(-1,3)	(1,3)	(-40,4)	
L1D 38>	(41,5)	(-13,3)	(1,2)	(-3,2)	(-40,9)	(-45,4)	(-12,3)	(-39,107)	(-43,6)	(-5,4)	(-41,15)	(-42,33)	(-1,2)	(-2,14)	(-6,1)	(3,5)	
L1D 39>	(-41,6)	(-40,70)	(-13,2)	(-45,1)	(1,4)	(-43,7)	(-124,1)	(13,3)	(5,1)	(-1,3)	(-42,42)	(-44,2)	(41,6)	(-46,1)	(2,2)	(-11,5)	
L1D 40>	(41,126)	(-11,1)	(5,9)	(-41,5)	(9,6)	(-121,3)	(-4,1)	(-15,5)	(-20,1)	(-7,2)	(-43,2)	(-3,1)	(-40,5)	(-243,1)	(-202,2)	(-42,2)	
L1D 41>	(40,77)	(-11,2)	(-122,1)	(-162,1)	(4,14)	(-43,3)	(42,1)	(-42,8)	(-330,1)	(-246,1)	(-243,1)	(-46,1)	(-15,1)	(-324,7)	(-1,6)	(9,2)	
L1D 42>	(4,38)	(3,5)	(-3,7)	(-1,26)	(0,3)	(-42,20)	(-45,12)	(-2,35)	(-94,7)	(-60,4)	(-41,7)	(-15,4)	(-43,68)	(-6,1)	(7,6)	(-9,27)	
L1D 43>	(-42,81)	(-35,2)	(4,3)	(-5,2)	(17,1)	(5,4)	(-44,4)	(-3,8)	(8,7)	(3,7)	(1,3)	(2,3)	(-60,1)	(-41,10)	(6,4)	(-40,18)	
L1D 44>	(-45,13)	(-42,86)	(0,1)	(41,25)	(-40,17)	(-118,4)	(-4,11)	(-44,26)	(7,10)	(2,13)	(-41,11)	(-1,11)	(4,4)	(5,13)	(40,23)	(1,7)	
L1D 45>	(7,19)	(2,5)	(-60,12)	(-3,16)	(1,20)	(-2,24)	(-42,117)	(-40,12)	(6,9)	(4,7)	(-1,11)	(-5,12)	(-41,14)	(40,18)	(-46,17)	(21,1)	
L1D 46>	(-8,1)	(4,4)	(-42,104)	(-7,6)	(-1,20)	(-41,6)	(0,5)	(-2,6)	(1,9)	(-3,6)	(6,10)	(-43,13)	(-47,24)	(-60,9)	(-6,6)	(2,22)	
L1D 47>	(4,17)	(-60,3)	(-46,44)	(-44,2)	(0,4)	(-47,86)	(-48,9)	(-37,2)	(1,3)	(-43,1)	(-30,12)	(-36,9)	(-42,30)	(-45,2)	(-31,2)	(-2,3)	
L1D 48>	(0,5)	(-16,1)	(-2,18)	(-44,15)	(-10,9)	(-1,23)	(-43,8)	(-5,12)	(-46,8)	(-42,94)	(-60,4)	(-45,43)	(-11,2)	(-6,9)	(-49,24)	(6,3)	
L1D 49>	(-3,2)	(4,69)	(-1,4)	(-48,92)	(-2,4)	(-45,10)	(-54,1)	(-41,8)	(-42,44)	(-50,74)	(-43,8)	(-60,2)	(-57,6)	(-10,5)	(44,1)	(-46,4)	
L1D 50>	(-60,8)	(-47,22)	(-48,4)	(-45,8)	(1,10)	(-3,8)	(-42,81)	(6,4)	(41,3)	(72,1)	(-51,23)	(-36,38)	(-1,5)	(-43,4)	(-2,6)	(-7,4)	
L1D 51>	(-35,6)	(5,4)	(-60,5)	(-42,70)	(-55,5)	(-43,8)	(-12,7)	(-71,1)	(42,10)	(-52,29)	(-7,24)	(40,1)	(-5,5)	(-11,8)	(-48,2)	(-34,5)	
L1D 52>	(-60,13)	(-53,13)	(-42,125)	(-49,3)	(6,14)	(-3,3)	(-6,7)	(-43,17)	(-9,8)	(-36,1)	(-59,2)	(-2,6)	(-1,12)	(-46,3)	(-7,24)	(-51,1)	
L1D 53>	(41,8)	(-11,6)	(5,17)	(-60,13)	(-42,102)	(-10,11)	(-2,6)	(-25,1)	(6,13)	(-43,7)	(-6,4)	(-9,4)	(4,7)	(-5,4)	(2,2)	(-1,6)	
L1D 54>	(-60,6)	(-42,97)	(-57,1)	(4,6)	(-1,21)	(-36,3)	(-13,5)	(1,25)	(-63,5)	(-6,6)	(5,5)	(-9,5)	(-5,5)	(-2,5)	(-52,4)	(-47,4)	
L1D 55>	(-45,1)	(4,9)	(-36,2)	(-55,12)	(-42,124)	(-12,15)	(-54,17)	(1,8)	(-1,13)	(-2,8)	(-59,3)	(-6,4)	(-43,8)	(-3,5)	(13,4)	(-65,11)	
L1D 56>	(-48,87)	(-52,8)	(-55,36)	(-13,5)	(-66,1)	(6,1)	(-57,1)	(-60,1)	(-42,33)	(1,1)	(-11,7)	(-54,1)	(2,4)	(-1,6)	(-58,2)	(-56,8)	
L1D 57>	(-47,67)	(-1,21)	(-60,19)	(-42,125)	(-43,5)	(-14,5)	(-52,25)	(-11,18)	(-61,7)	(2,19)	(-20,6)	(-62,1)	(-2,12)	(-56,2)	(-12,19)	(-58,10)	
L1D 58>	(-41,1)	(-43,5)	(-60,27)	(-42,65)	(-15,11)	(-152,5)	(-59,13)	(-2,12)	(-6,2)	(-14,6)	(-1,16)	(-3,8)	(-11,18)	(-47,12)	(7,0)	(-61,8)	
L1D 59>	(4,15)	(-43,1)	(-56,85)	(-18,1)	(-58,35)	(-62,2)	(-60,27)	(-64,1)	(-3,2)	(-1,3)	(-42,10)	(-47,1)	(-48,3)	(-63,1)	(-11,7)	(-2,2)	
L1D 60>	(-133,3)	(-1,24)	(-60,15)	(-11,22)	(-154,15)	(-16,6)	(-17,5)	(-6,5)	(-42,102)	(-3,4)	(-61,5)	(-14,1)	(-2,25)	(-12,2)	(-59,6)	(-4,11)	
L1D 61>	(0,5)	(-62,107)	(-18,5)	(-47,2)	(2,2)	(-58,2)	(-42,35)	(-54,3)	(-59,1)	(-52,1)	(-60,11)	(-50,2)	(17,6)	(-41,1)	(1,7)	(8,3)	
L1D 62>	(-1,25)	(-60,68)	(21,5)	(-42,51)	(-19,14)	(-47,9)	(-41,6)	(-52,1)	(4,13)	(5,5)	(2,6)	(0,5)	(-8,5)	(-59,18)	(-3,7)	(-17,3)	
L1D 63>	(4,3)	(-4,2)	(-2,2)	(-59,4)	(-20,2)	(14,1)	(-60,16)	(3,3)	(-42,11)	(-43,3)	(-6,1)	(-44,3)	(-64,1)	(-1,1)	(-45,5)	(-47,96)	
L1D 64>	(296,16)	(-60,90)	(-3,3)	(-42,103)	(-21,27)	(-19,5)	(-154,8)	(-41,29)	(2,26)	(-62,13)	(0,9)	(-57,1)	(-4,8)	(-1,19)	(-18,11)	(-59,19)	
L1D 65>	(-67,88)	(-57,5)	(-21,2)	(-32,1)	(-42,48)	(-16,2)	(-4,2)	(-59,3)	(-64,97)	(-12,1)	(-60,12)	(-63,1)	(-22,6)	(1,1)	(-2,2)	(-1,5)	
L1D 66>	(-68,76)	(-3,1)	(4,91)	(61,1)	(-63,1)	(-69,14)	(-70,13)	(0,1)	(-60,3)	(-39,0)	(-23,3)	(-67,3)	(-42,5)	(-1,1)	(-65,2)	(-66,1)	
L1D 67>	(-151,1)	(-60,19)	(-8,7)	(-42,73)	(-24,9)	(-67,4)	(0,1)	(-56,1)	(-71,2)	(-68,4)	(-3,3)	(-75,2)	(1,4)	(-4,2)	(-43,1)	(-11,1)	
L1D 68>	(-67,79)	(-60,33)	(-28,1)	(0,8)	(-42,24)	(-23,2)	(1,1)	(-12,1)	(-25,4)	(-1,3)	(-70,3)	(-68,1)	(-40,0)	(-7,0)	(3,1)	(6,0)	
L1D 69>	(-60,5)	(-152,1)	(1,3)	(-1,4)	(-42,79)	(-8,4)	(5,3)	(-66,2)	(-26,2)	(2,7)	(-67,44)	(-62,1)	(42,6)	(3,1)	(4,2)	(-39,1)	
L1D 70>	(-60,34)	(2,2)	(-42,97)	(-68,1)	(-9,3)	(-71,7)	(24,4)	(60,1)	(-26,1)	(-69,2)	(-70,1)	(3,1)	(-61,5)	(-2,3)	(-21,1)	(-1,6)	
L1D 71>	(41,2)	(2,4)	(-10,6)	(-68,5)	(-60,18)	(-42,74)	(4,2)	(-1,10)	(-61,2)	(-40,6)	(-69,2)	(-8,10)	(-7,1)	(-71,1)	(59,1)	(-72,2)	
L1D 72>	(4,35)	(-74,14)	(-68,22)	(-60,15)	(-42,4)	(-70,14)	(-18,1)	(-55,2)	(-1,2)	(-66,109)	(-76,1)	(-71,99)	(-73,6)	(58,1)	(-67,27)	(-56,1)	
L1D 73>	(0,39)	(-74,69)	(-7,3)	(-60,49)	(-1,42)	(-12,4)	(-71,7)	(-8,7)	(-40,8)	(-11,1)	(2,13)	(-42,61)	(-183,2)	(1,22)	(-254,3)	(-6,3)	
L1D 74>	(-59,5)	(-60,69)	(-11,1)	(-13,9)	(0,30)	(-1,15)	(-42,22)	(-56,7)	(-55,15)	(-74,78)	(1,25)	(4,8)	(44,3)	(-2,3)	(-75,44)	(-73,10)	
L1D 75>	(-3,44)	(-76,47)	(-60,69)	(0,47)	(89,4)	(-41,28)	(50,111)	(-1,7)	(-61,1)	(43,44)	(25,20)	(-70,16)	(-78,2)	(2,23)	(40,26)	(-42,28)	
L1D 76>	(-82,33)	(6,1)	(40,73)	(1,7)	(-60,39)	(-78,13)	(-1,10)	(0,24)	(4,47)	(-59,4)	(-15,8)	(-77,43)	(41,12)	(-42,11)	(-284,5)	(-75,4)	
L1D 77>	(-79,38)	(-62,1)	(-81,8)	(15,1)	(-5,4)	(4,127)	(16,1)	(-72,2)	(-80,49)	(-78,27)	(2,1)	(-4,2)	(38,1)	(-42,1)	(43,1)	(44,1)	
L1D 78>	(-60,2)	(-77,4)	(1,15)	(105,13)	(4,31)	(-80,3)	(43,4)	(42,2)	(-42,19)	(-86,16)	(-100,9)	(-79,9)	(-6,1)	(5,2)	(-78,92)	(-4,2)	
L1D 79>	(105,94)	(-60,15)	(-78,102)	(-79,1)	(-42,9)	(38,9)	(-80,13)	(-2,2)	(-89,2)	(42,3)	(1,4)	(-5,5)	(3,5)	(41,3)	(-1,4)	(-3,4)	
L1D 80>	(-5,2)	(5,18)	(-79,17)	(-3,6)	(-84,42)	(9,17)	(-42,5)	(-65,5)	(-8,11)	(-60,1)	(-1,3)	(105,82)	(-67,1)	(-81,10)	(0,3)	(4,2)	
L1D 81>	(0,2)	(-81,51)	(40,81)	(-41,34)	(-42,6)	(-40,19)	(-13,2)	(1,2)	(2,7)	(41,15)	(-283,2)	(-1,8)	(-60,22)	(4,1)	(-4,10)	(-82,14)	
L1D 82>	(64,2)	(4,18)	(0,2)	(-83,30)	(-42,15)	(-78,114)	(-60,9)	(-96,1)	(-79,12)	(-5,7)	(-81,12)	(-12,5)	(-59,1)	(1,5)	(-77,56)	(-86,7)	
L1D 83>	(-78,12)	(-82,48)	(-81,2)	(11,2)	(8,1)	(-85,6)	(-42,5)	(-9,4)	(4,85)	(0,6)	(-1,2)	(-3,10)	(-84,9)	(140,2)	(-60,1)	(-11,2)	
L1D 84>	(-43,20)	(33,10)	(-82,20)	(-84,17)	(-9,1)	(0,15)	(-85,121)	(41,18)	(-42,100)	(-90,2)	(-198,8)	(35,2)	(-195,4)	(139,13)	(-40,44)	(-2,18)	
L1D 85>	(4,6)	(-79,1)	(-9,0)	(7,1)	(136,1)	(-42,1)	(9,0)	(-86,2)	(-8,4)	(-43,0)	(-81,5)	(-3,7)	(-78,70)	(0,0)	(-203,0)	(-77,39)	
L1D 86>	(-60,4)	(-72,35)	(0,27)	(-196,17)	(-193,12)	(-41,3)	(138,86)	(-1,2)	(1,15)	(47,2)	(135,3)	(-42,12)	(43,1)	(-191,7)	(2,5)	(-8,1)	
[...]
L1D 473>	(0,2)	(8,2)	(1,0)	(1,0)	(1,0)	(1,0)	(1,0)	(1,0)	(1,0)	(1,0)	(1,0)	(1,0)	(1,0)	(1,0)	(1,0)	(1,0)	
L1D 474>	(-474,2)	(1,0)	(1,0)	(1,0)	(1,0)	(1,0)	(1,0)	(1,0)	(1,0)	(1,0)	(1,0)	(1,0)	(1,0)	(1,0)	(1,0)	(1,0)	
L1D 475>	(-219,1)	(-412,1)	(-139,1)	(1,0)	(1,0)	(1,0)	(1,0)	(1,0)	(1,0)	(1,0)	(1,0)	(1,0)	(1,0)	(1,0)	(1,0)	(1,0)	
L1D 476>	(-348,1)	(-138,1)	(-32,1)	(0,2)	(1,0)	(1,0)	(1,0)	(1,0)	(1,0)	(1,0)	(1,0)	(1,0)	(1,0)	(1,0)	(1,0)	(1,0)	
L1D 477>	(-64,2)	(0,4)	(-477,1)	(-393,1)	(1,0)	(1,0)	(1,0)	(1,0)	(1,0)	(1,0)	(1,0)	(1,0)	(1,0)	(1,0)	(1,0)	(1,0)	
L1D 478>	(1,0)	(1,0)	(1,0)	(1,0)	(1,0)	(1,0)	(1,0)	(1,0)	(1,0)	(1,0)	(1,0)	(1,0)	(1,0)	(1,0)	(1,0)	(1,0)	
L1D 479>	(0,2)	(1,0)	(1,0)	(1,0)	(1,0)	(1,0)	(1,0)	(1,0)	(1,0)	(1,0)	(1,0)	(1,0)	(1,0)	(1,0)	(1,0)	(1,0)	
L1D 480>	(1,0)	(1,0)	(1,0)	(1,0)	(1,0)	(1,0)	(1,0)	(1,0)	(1,0)	(1,0)	(1,0)	(1,0)	(1,0)	(1,0)	(1,0)	(1,0)	
L1D 481>	(6,13)	(2,1)	(1,0)	(1,0)	(1,0)	(1,0)	(1,0)	(1,0)	(1,0)	(1,0)	(1,0)	(1,0)	(1,0)	(1,0)	(1,0)	(1,0)	
L1D 482>	(1,0)	(1,0)	(1,0)	(1,0)	(1,0)	(1,0)	(1,0)	(1,0)	(1,0)	(1,0)	(1,0)	(1,0)	(1,0)	(1,0)	(1,0)	(1,0)	
L1D 483>	(1,0)	(1,0)	(1,0)	(1,0)	(1,0)	(1,0)	(1,0)	(1,0)	(1,0)	(1,0)	(1,0)	(1,0)	(1,0)	(1,0)	(1,0)	(1,0)	
L1D 484>	(1,0)	(1,0)	(1,0)	(1,0)	(1,0)	(1,0)	(1,0)	(1,0)	(1,0)	(1,0)	(1,0)	(1,0)	(1,0)	(1,0)	(1,0)	(1,0)	
L1D 485>	(1,0)	(1,0)	(1,0)	(1,0)	(1,0)	(1,0)	(1,0)	(1,0)	(1,0)	(1,0)	(1,0)	(1,0)	(1,0)	(1,0)	(1,0)	(1,0)	
L1D 486>	(1,0)	(1,0)	(1,0)	(1,0)	(1,0)	(1,0)	(1,0)	(1,0)	(1,0)	(1,0)	(1,0)	(1,0)	(1,0)	(1,0)	(1,0)	(1,0)	
L1D 487>	(1,0)	(1,0)	(1,0)	(1,0)	(1,0)	(1,0)	(1,0)	(1,0)	(1,0)	(1,0)	(1,0)	(1,0)	(1,0)	(1,0)	(1,0)	(1,0)	
L1D 488>	(1,0)	(1,0)	(1,0)	(1,0)	(1,0)	(1,0)	(1,0)	(1,0)	(1,0)	(1,0)	(1,0)	(1,0)	(1,0)	(1,0)	(1,0)	(1,0)	
L1D 489>	(1,0)	(1,0)	(1,0)	(1,0)	(1,0)	(1,0)	(1,0)	(1,0)	(1,0)	(1,0)	(1,0)	(1,0)	(1,0)	(1,0)	(1,0)	(1,0)	
L1D 490>	(1,0)	(1,0)	(1,0)	(1,0)	(1,0)	(1,0)	(1,0)	(1,0)	(1,0)	(1,0)	(1,0)	(1,0)	(1,0)	(1,0)	(1,0)	(1,0)	
L1D 491>	(1,0)	(1,0)	(1,0)	(1,0)	(1,0)	(1,0)	(1,0)	(1,0)	(1,0)	(1,0)	(1,0)	(1,0)	(1,0)	(1,0)	(1,0)	(1,0)	
L1D 492>	(1,0)	(1,0)	(1,0)	(1,0)	(1,0)	(1,0)	(1,0)	(1,0)	(1,0)	(1,0)	(1,0)	(1,0)	(1,0)	(1,0)	(1,0)	(1,0)	
L1D 493>	(1,0)	(1,0)	(1,0)	(1,0)	(1,0)	(1,0)	(1,0)	(1,0)	(1,0)	(1,0)	(1,0)	(1,0)	(1,0)	(1,0)	(1,0)	(1,0)	
L1D 494>	(1,0)	(1,0)	(1,0)	(1,0)	(1,0)	(1,0)	(1,0)	(1,0)	(1,0)	(1,0)	(1,0)	(1,0)	(1,0)	(1,0)	(1,0)	(1,0)	
L1D 495>	(1,0)	(1,0)	(1,0)	(1,0)	(1,0)	(1,0)	(1,0)	(1,0)	(1,0)	(1,0)	(1,0)	(1,0)	(1,0)	(1,0)	(1,0)	(1,0)	
L1D 496>	(1,0)	(1,0)	(1,0)	(1,0)	(1,0)	(1,0)	(1,0)	(1,0)	(1,0)	(1,0)	(1,0)	(1,0)	(1,0)	(1,0)	(1,0)	(1,0)	
L1D 497>	(1,0)	(1,0)	(1,0)	(1,0)	(1,0)	(1,0)	(1,0)	(1,0)	(1,0)	(1,0)	(1,0)	(1,0)	(1,0)	(1,0)	(1,0)	(1,0)	
L1D 498>	(1,0)	(1,0)	(1,0)	(1,0)	(1,0)	(1,0)	(1,0)	(1,0)	(1,0)	(1,0)	(1,0)	(1,0)	(1,0)	(1,0)	(1,0)	(1,0)	
L1D 499>	(1,0)	(1,0)	(1,0)	(1,0)	(1,0)	(1,0)	(1,0)	(1,0)	(1,0)	(1,0)	(1,0)	(1,0)	(1,0)	(1,0)	(1,0)	(1,0)	
L1D 500>	(1,0)	(1,0)	(1,0)	(1,0)	(1,0)	(1,0)	(1,0)	(1,0)	(1,0)	(1,0)	(1,0)	(1,0)	(1,0)	(1,0)	(1,0)	(1,0)	
L1D 501>	(1,0)	(1,0)	(1,0)	(1,0)	(1,0)	(1,0)	(1,0)	(1,0)	(1,0)	(1,0)	(1,0)	(1,0)	(1,0)	(1,0)	(1,0)	(1,0)	
L1D 502>	(1,0)	(1,0)	(1,0)	(1,0)	(1,0)	(1,0)	(1,0)	(1,0)	(1,0)	(1,0)	(1,0)	(1,0)	(1,0)	(1,0)	(1,0)	(1,0)	
L1D 503>	(1,0)	(1,0)	(1,0)	(1,0)	(1,0)	(1,0)	(1,0)	(1,0)	(1,0)	(1,0)	(1,0)	(1,0)	(1,0)	(1,0)	(1,0)	(1,0)	
L1D 504>	(1,0)	(1,0)	(1,0)	(1,0)	(1,0)	(1,0)	(1,0)	(1,0)	(1,0)	(1,0)	(1,0)	(1,0)	(1,0)	(1,0)	(1,0)	(1,0)	
L1D 505>	(1,0)	(1,0)	(1,0)	(1,0)	(1,0)	(1,0)	(1,0)	(1,0)	(1,0)	(1,0)	(1,0)	(1,0)	(1,0)	(1,0)	(1,0)	(1,0)	
L1D 506>	(1,0)	(1,0)	(1,0)	(1,0)	(1,0)	(1,0)	(1,0)	(1,0)	(1,0)	(1,0)	(1,0)	(1,0)	(1,0)	(1,0)	(1,0)	(1,0)	
L1D 507>	(1,0)	(1,0)	(1,0)	(1,0)	(1,0)	(1,0)	(1,0)	(1,0)	(1,0)	(1,0)	(1,0)	(1,0)	(1,0)	(1,0)	(1,0)	(1,0)	
L1D 508>	(1,0)	(1,0)	(1,0)	(1,0)	(1,0)	(1,0)	(1,0)	(1,0)	(1,0)	(1,0)	(1,0)	(1,0)	(1,0)	(1,0)	(1,0)	(1,0)	
L1D 509>	(1,0)	(1,0)	(1,0)	(1,0)	(1,0)	(1,0)	(1,0)	(1,0)	(1,0)	(1,0)	(1,0)	(1,0)	(1,0)	(1,0)	(1,0)	(1,0)	
L1D 510>	(1,0)	(1,0)	(1,0)	(1,0)	(1,0)	(1,0)	(1,0)	(1,0)	(1,0)	(1,0)	(1,0)	(1,0)	(1,0)	(1,0)	(1,0)	(1,0)	
L1D 511>	(1,0)	(1,0)	(1,0)	(1,0)	(1,0)	(1,0)	(1,0)	(1,0)	(1,0)	(1,0)	(1,0)	(1,0)	(1,0)	(1,0)	(1,0)	(1,0)	

L2C -64>	(1,42)	(-10,0)	(-8,7)	(-7,2)	(-2,5)	(2,157)	(-6,6)	(-63,1)	(4,3)	(-5,3)	(3,49)	(-4,0)	(0,0)	(14,0)	(-1,4)	(12,0)	
L2C -63>	(1,160)	(9,0)	(2,79)	(4,0)	(3,1)	(1,0)	(1,0)	(1,0)	(1,0)	(1,0)	(1,0)	(1,0)	(1,0)	(1,0)	(1,0)	(1,0)	
L2C -62>	(6,0)	(0,0)	(7,0)	(1,139)	(2,8)	(-1,145)	(1,0)	(1,0)	(1,0)	(1,0)	(1,0)	(1,0)	(1,0)	(1,0)	(1,0)	(1,0)	
L2C -61>	(1,59)	(-1,10)	(2,140)	(3,0)	(24,0)	(5,0)	(16,0)	(18,0)	(15,0)	(1,0)	(1,0)	(1,0)	(1,0)	(1,0)	(1,0)	(1,0)	
L2C -60>	(2,9)	(1,10)	(-1,11)	(5,1)	(24,1)	(23,1)	(11,1)	(0,1)	(7,2)	(1,0)	(1,0)	(1,0)	(1,0)	(1,0)	(1,0)	(1,0)	
L2C -59>	(1,13)	(59,1)	(2,2)	(8,2)	(-1,2)	(3,1)	(0,1)	(55,1)	(27,2)	(16,1)	(25,1)	(1,0)	(1,0)	(1,0)	(1,0)	(1,0)	
L2C -58>	(4,6)	(55,1)	(5,1)	(2,10)	(14,1)	(12,1)	(1,1)	(1,0)	(1,0)	(1,0)	(1,0)	(1,0)	(1,0)	(1,0)	(1,0)	(1,0)	
L2C -57>	(17,1)	(20,1)	(3,6)	(1,5)	(-1,11)	(13,1)	(59,1)	(8,1)	(57,1)	(2,1)	(56,1)	(1,0)	(1,0)	(1,0)	(1,0)	(1,0)	
L2C -56>	(1,17)	(36,1)	(56,1)	(2,9)	(-1,17)	(20,1)	(59,1)	(62,1)	(0,1)	(11,1)	(45,1)	(1,0)	(1,0)	(1,0)	(1,0)	(1,0)	
L2C -55>	(18,2)	(-2,1)	(1,19)	(0,5)	(54,1)	(2,2)	(3,1)	(55,10)	(13,1)	(33,1)	(28,1)	(5,3)	(-4,1)	(57,2)	(59,2)	(14,2)	
L2C -54>	(1,31)	(54,2)	(12,1)	(28,1)	(14,3)	(2,1)	(16,1)	(0,1)	(29,1)	(4,1)	(52,1)	(-1,1)	(51,1)	(23,1)	(18,1)	(-3,1)	
L2C -53>	(1,16)	(25,1)	(4,1)	(31,1)	(50,1)	(0,2)	(51,4)	(18,2)	(17,2)	(-2,1)	(23,1)	(3,1)	(10,1)	(-5,1)	(33,1)	(38,1)	
L2C -52>	(-7,1)	(23,1)	(49,1)	(-3,2)	(1,7)	(7,2)	(18,1)	(20,1)	(32,1)	(53,1)	(-5,1)	(2,1)	(24,1)	(15,1)	(10,1)	(51,3)	
L2C -51>	(2,2)	(32,2)	(50,1)	(12,2)	(23,2)	(14,2)	(27,1)	(47,1)	(29,2)	(13,1)	(1,7)	(-1,1)	(5,2)	(17,1)	(54,2)	(46,1)	
L2C -50>	(51,2)	(47,1)	(46,2)	(1,10)	(-1,2)	(50,4)	(2,1)	(4,1)	(-5,4)	(5,1)	(-10,1)	(40,1)	(23,1)	(6,2)	(10,1)	(-6,1)	
L2C -49>	(-4,1)	(1,7)	(47,1)	(58,1)	(-1,1)	(12,1)	(49,4)	(32,1)	(-8,1)	(-7,1)	(14,1)	(50,3)	(27,1)	(-2,1)	(13,2)	(16,1)	
L2C -48>	(1,2)	(50,1)	(11,1)	(0,1)	(27,1)	(-1,1)	(9,1)	(49,1)	(1,0)	(1,0)	(1,0)	(1,0)	(1,0)	(1,0)	(1,0)	(1,0)	
L2C -47>	(1,4)	(16,1)	(33,1)	(46,2)	(5,1)	(28,2)	(15,1)	(-4,1)	(-8,1)	(1,0)	(1,0)	(1,0)	(1,0)	(1,0)	(1,0)	(1,0)	
L2C -46>	(50,2)	(49,1)	(3,2)	(-10,1)	(2,1)	(1,3)	(11,1)	(0,2)	(29,1)	(10,3)	(16,1)	(-12,1)	(26,1)	(47,1)	(19,1)	(1,0)	
L2C -45>	(27,1)	(5,1)	(-2,1)	(0,1)	(-4,1)	(-1,1)	(1,11)	(30,1)	(23,1)	(39,1)	(10,1)	(17,1)	(28,1)	(2,3)	(60,1)	(-15,1)	
L2C -44>	(40,1)	(49,1)	(-1,3)	(1,9)	(5,1)	(55,1)	(30,1)	(-16,1)	(-8,1)	(41,1)	(-6,1)	(6,4)	(14,2)	(-9,1)	(0,1)	(1,0)	
L2C -43>	(22,1)	(44,2)	(40,2)	(0,1)	(2,2)	(1,14)	(-1,5)	(-16,2)	(-8,1)	(-9,2)	(21,1)	(6,1)	(26,1)	(20,1)	(24,1)	(18,1)	
L2C -42>	(1,7)	(40,10)	(19,1)	(9,1)	(41,1)	(-9,1)	(27,4)	(24,3)	(-1,3)	(2,4)	(42,1)	(54,1)	(3,2)	(28,5)	(11,2)	(6,1)	
L2C -41>	(40,4)	(-1,6)	(27,1)	(3,2)	(0,4)	(5,2)	(-2,1)	(1,6)	(-14,1)	(35,1)	(22,1)	(2,4)	(37,1)	(42,1)	(13,2)	(-6,1)	
L2C -40>	(1,18)	(37,1)	(28,1)	(59,1)	(31,3)	(0,3)	(46,1)	(6,1)	(35,2)	(4,2)	(-1,4)	(5,4)	(-20,1)	(2,1)	(40,1)	(9,2)	
L2C -39>	(15,3)	(38,6)	(18,1)	(35,2)	(6,4)	(16,4)	(-1,5)	(-2,6)	(-3,2)	(1,3)	(24,2)	(17,6)	(10,2)	(13,3)	(56,3)	(-16,2)	
L2C -38>	(1,3)	(14,1)	(5,1)	(37,1)	(-6,2)	(19,3)	(-13,1)	(-1,3)	(9,1)	(-20,1)	(18,1)	(43,4)	(23,2)	(36,1)	(20,2)	(6,1)	
L2C -37>	(-1,6)	(10,2)	(19,2)	(31,3)	(14,3)	(17,1)	(-12,1)	(37,1)	(-2,6)	(26,1)	(3,1)	(-4,1)	(18,1)	(5,2)	(59,1)	(1,4)	
L2C -36>	(1,13)	(-8,1)	(35,1)	(-20,1)	(9,1)	(30,1)	(18,1)	(23,1)	(2,2)	(-10,2)	(25,1)	(8,3)	(21,2)	(7,1)	(34,1)	(-2,1)	
L2C -35>	(1,26)	(-1,5)	(20,3)	(28,2)	(22,1)	(19,1)	(16,2)	(14,1)	(26,11)	(-3,2)	(-4,1)	(-8,2)	(5,3)	(2,1)	(3,1)	(27,4)	
L2C -34>	(1,14)	(10,1)	(-21,1)	(-7,1)	(0,1)	(12,1)	(27,5)	(4,1)	(28,1)	(5,5)	(41,1)	(-5,1)	(26,8)	(22,1)	(35,1)	(25,3)	
L2C -33>	(13,3)	(14,2)	(12,1)	(19,1)	(1,14)	(25,2)	(-1,8)	(-17,2)	(0,6)	(-2,1)	(31,2)	(32,4)	(16,3)	(33,4)	(5,1)	(27,19)	
L2C -32>	(1,24)	(13,5)	(28,5)	(3,1)	(2,2)	(17,1)	(26,2)	(37,1)	(27,5)	(32,8)	(-6,2)	(0,7)	(12,3)	(-2,3)	(5,6)	(-1,3)	
L2C -31>	(32,4)	(27,2)	(-1,3)	(-5,1)	(1,8)	(10,1)	(5,9)	(9,1)	(31,3)	(11,2)	(30,1)	(22,1)	(36,2)	(51,1)	(-6,1)	(2,4)	
L2C -30>	(5,6)	(20,4)	(17,1)	(1,15)	(-1,1)	(13,2)	(24,1)	(10,2)	(-18,1)	(11,1)	(0,3)	(14,1)	(-8,2)	(-7,1)	(25,9)	(32,1)	
L2C -29>	(23,1)	(1,14)	(14,4)	(7,1)	(10,3)	(-1,3)	(-14,1)	(19,2)	(3,2)	(16,1)	(5,3)	(33,2)	(0,2)	(27,2)	(32,3)	(51,2)	
L2C -28>	(-1,3)	(1,9)	(25,3)	(2,10)	(29,7)	(27,4)	(28,3)	(23,3)	(10,1)	(30,4)	(-5,1)	(12,1)	(59,1)	(-10,1)	(13,2)	(18,4)	
L2C -27>	(28,10)	(1,17)	(27,2)	(3,1)	(22,1)	(-10,1)	(0,5)	(41,1)	(17,2)	(2,6)	(15,1)	(21,1)	(13,3)	(10,4)	(53,1)	(8,3)	
L2C -26>	(2,2)	(-1,7)	(8,13)	(27,8)	(28,4)	(1,18)	(22,4)	(19,1)	(14,2)	(4,4)	(43,1)	(13,2)	(6,2)	(10,1)	(23,1)	(16,2)	
L2C -25>	(16,2)	(6,1)	(8,2)	(5,7)	(0,3)	(26,2)	(60,1)	(-7,1)	(33,1)	(-14,1)	(10,3)	(1,15)	(3,2)	(25,5)	(14,5)	(-13,2)	
L2C -24>	(1,9)	(8,5)	(25,5)	(2,5)	(-1,18)	(5,4)	(3,1)	(26,1)	(-29,2)	(10,2)	(28,4)	(-19,1)	(19,1)	(-24,2)	(49,2)	(23,1)	
L2C -23>	(1,13)	(0,5)	(-6,3)	(5,6)	(2,2)	(-1,8)	(20,4)	(8,3)	(4,1)	(17,2)	(23,3)	(-2,3)	(33,1)	(-10,1)	(16,2)	(-18,1)	
L2C -22>	(1,10)	(-3,7)	(20,3)	(11,4)	(-33,3)	(-1,20)	(7,1)	(23,3)	(19,2)	(-16,3)	(21,6)	(-7,2)	(-8,2)	(26,3)	(27,5)	(5,8)	
L2C -21>	(10,3)	(1,16)	(20,1)	(4,3)	(22,1)	(8,4)	(5,5)	(-1,8)	(-8,1)	(-10,2)	(0,5)	(-32,2)	(-16,4)	(19,3)	(21,1)	(16,1)	
L2C -20>	(1,11)	(10,3)	(2,5)	(11,2)	(-1,5)	(12,2)	(21,2)	(19,5)	(-16,2)	(-4,1)	(15,2)	(20,4)	(5,12)	(38,1)	(52,2)	(33,1)	
L2C -19>	(-17,3)	(-1,10)	(1,19)	(-4,2)	(11,7)	(15,3)	(-2,2)	(-13,2)	(13,7)	(22,2)	(2,2)	(-6,2)	(16,2)	(14,1)	(-9,3)	(18,8)	
L2C -18>	(19,4)	(5,5)	(2,2)	(1,30)	(-9,2)	(38,2)	(28,3)	(-1,12)	(17,11)	(12,6)	(-7,3)	(33,2)	(0,5)	(-15,2)	(16,1)	(4,2)	
L2C -17>	(1,33)	(18,6)	(10,3)	(-6,4)	(0,7)	(-9,5)	(5,4)	(17,20)	(3,2)	(12,2)	(-1,17)	(15,4)	(16,5)	(-32,1)	(8,3)	(6,3)	
L2C -16>	(1,36)	(-10,2)	(14,5)	(-7,3)	(-1,8)	(-16,3)	(19,3)	(16,16)	(-3,3)	(0,19)	(17,18)	(21,1)	(5,10)	(32,2)	(55,3)	(6,8)	
L2C -15>	(1,21)	(10,3)	(5,7)	(15,23)	(39,1)	(16,3)	(-4,1)	(-9,2)	(-5,1)	(-1,12)	(20,3)	(8,3)	(34,3)	(0,7)	(12,3)	(36,1)	
L2C -14>	(1,19)	(2,9)	(-3,4)	(4,6)	(-4,3)	(33,6)	(55,3)	(5,2)	(-2,1)	(14,11)	(-7,2)	(7,2)	(6,1)	(-1,10)	(8,1)	(15,6)	
L2C -13>	(1,18)	(-2,3)	(11,5)	(27,4)	(12,3)	(-42,5)	(0,3)	(5,14)	(-1,16)	(-9,1)	(14,3)	(3,3)	(9,4)	(-8,2)	(36,2)	(33,2)	
L2C -12>	(1,18)	(4,7)	(10,5)	(7,2)	(6,2)	(-1,6)	(5,2)	(-11,3)	(11,8)	(-8,2)	(8,1)	(-3,4)	(16,2)	(2,9)	(-6,3)	(32,2)	
L2C -11>	(-1,4)	(1,31)	(4,9)	(11,1)	(2,12)	(3,8)	(14,2)	(-7,2)	(5,11)	(10,5)	(12,2)	(16,4)	(22,2)	(47,1)	(19,2)	(0,4)	
L2C -10>	(15,4)	(11,14)	(-1,27)	(1,61)	(2,9)	(9,12)	(10,19)	(23,5)	(8,1)	(13,7)	(-18,4)	(0,15)	(5,8)	(14,3)	(28,3)	(-5,3)	
L2C -9>	(1,69)	(5,22)	(-1,30)	(12,9)	(11,18)	(14,5)	(3,4)	(10,14)	(2,14)	(7,1)	(4,6)	(-4,2)	(15,3)	(8,11)	(29,3)	(9,9)	
L2C -8>	(6,8)	(-9,4)	(10,76)	(1,87)	(7,12)	(3,88)	(4,73)	(0,10)	(-1,31)	(-14,3)	(11,7)	(2,17)	(-2,1)	(20,2)	(9,174)	(5,36)	
L2C -7>	(1,54)	(-1,40)	(8,36)	(10,5)	(5,30)	(-2,7)	(3,16)	(6,18)	(13,1)	(9,181)	(2,19)	(7,9)	(18,4)	(-56,1)	(-11,1)	(-4,5)	
L2C -6>	(-5,5)	(-1,58)	(1,92)	(5,26)	(-3,12)	(7,18)	(2,29)	(4,3)	(10,11)	(8,60)	(9,53)	(0,7)	(11,3)	(-4,11)	(-56,5)	(3,6)	
L2C -5>	(1,157)	(-1,58)	(2,23)	(4,145)	(3,35)	(10,28)	(11,8)	(-7,8)	(8,18)	(-3,8)	(5,25)	(6,28)	(-58,6)	(9,11)	(-5,1)	(7,49)	
L2C -4>	(-1,145)	(9,8)	(0,21)	(1,229)	(-5,10)	(-6,8)	(-4,5)	(2,8)	(7,5)	(8,10)	(3,20)	(4,68)	(5,52)	(-58,2)	(6,7)	(10,1)	
L2C -3>	(1,131)	(2,58)	(-1,163)	(4,70)	(3,22)	(-60,6)	(10,5)	(-7,14)	(-4,8)	(0,27)	(-2,21)	(5,40)	(-3,17)	(-11,4)	(-9,1)	(-5,33)	
L2C -2>	(-2,71)	(-1,194)	(1,221)	(-5,13)	(-4,15)	(-61,3)	(-8,11)	(-7,27)	(2,65)	(-60,4)	(4,252)	(10,15)	(0,97)	(5,41)	(-14,1)	(3,172)	
L2C -1>	(-61,26)	(-4,1)	(-62,6)	(-9,1)	(18,1)	(2,226)	(3,14)	(-6,22)	(7,2)	(11,1)	(9,1)	(4,2)	(1,4)	(12,1)	(-1,63)	(17,1)	
L2C 0>	(-3,6)	(4,4)	(-1,13)	(1,33)	(0,227)	(18,2)	(-4,2)	(-55,2)	(8,2)	(-2,4)	(2,1)	(6,1)	(16,5)	(-39,1)	(-16,2)	(-5,1)	
L2C 1>	(-5,2)	(1,235)	(-6,1)	(2,26)	(-1,1)	(-62,11)	(5,3)	(-13,1)	(-2,4)	(38,1)	(-3,2)	(-4,0)	(4,3)	(-63,8)	(3,19)	(-9,0)	
L2C 2>	(1,143)	(-4,1)	(-62,1)	(2,16)	(-22,0)	(9,0)	(-1,96)	(5,0)	(15,0)	(-10,1)	(17,0)	(-7,2)	(3,3)	(-3,0)	(-63,3)	(-8,0)	
L2C 3>	(-11,1)	(2,52)	(1,185)	(-8,6)	(-2,0)	(-4,16)	(6,2)	(-1,5)	(0,1)	(-49,0)	(-6,0)	(3,2)	(-5,6)	(-63,0)	(-62,0)	(5,6)	
L2C 4>	(1,151)	(5,8)	(-5,9)	(-3,27)	(3,10)	(-2,6)	(-1,52)	(4,2)	(7,2)	(-6,1)	(-8,8)	(-4,24)	(10,2)	(2,18)	(0,6)	(8,1)	
L2C 5>	(3,2)	(5,190)	(6,12)	(-7,3)	(2,29)	(1,44)	(-5,6)	(-6,5)	(-4,12)	(-2,28)	(-1,21)	(4,2)	(15,4)	(10,18)	(-33,4)	(-32,1)	
L2C 6>	(-28,7)	(1,112)	(5,115)	(-1,41)	(3,12)	(4,7)	(-5,33)	(-6,19)	(-15,8)	(0,9)	(2,39)	(-2,17)	(-8,9)	(10,7)	(-19,1)	(-4,8)	
L2C 7>	(1,75)	(-1,58)	(-22,1)	(-9,14)	(-6,18)	(0,6)	(6,9)	(-7,12)	(5,25)	(2,21)	(-2,13)	(-5,9)	(3,12)	(-3,9)	(-14,13)	(-10,4)	
L2C 8>	(1,141)	(-4,29)	(5,31)	(-1,21)	(-7,13)	(6,2)	(10,5)	(-5,22)	(-6,25)	(3,10)	(-8,20)	(2,22)	(-16,4)	(-10,9)	(-2,8)	(-3,4)	
L2C 9>	(1,240)	(-6,11)	(2,14)	(19,2)	(-10,2)	(-5,16)	(-1,12)	(-63,2)	(6,2)	(25,1)	(-7,4)	(5,5)	(-8,11)	(-4,17)	(-2,12)	(-9,6)	
L2C 10>	(5,119)	(4,4)	(13,1)	(6,18)	(-9,12)	(-8,9)	(-1,31)	(3,9)	(2,12)	(0,15)	(-10,26)	(-2,10)	(1,84)	(-23,3)	(-20,4)	(-39,2)	
L2C 11>	(1,33)	(-1,17)	(2,7)	(5,32)	(4,6)	(10,3)	(21,3)	(0,2)	(-33,14)	(3,6)	(-3,3)	(17,2)	(-11,1)	(-34,2)	(8,2)	(-42,1)	
L2C 12>	(1,34)	(-1,11)	(-31,2)	(-10,3)	(4,8)	(35,1)	(5,8)	(38,1)	(2,9)	(0,1)	(-39,2)	(-9,1)	(-2,2)	(-5,3)	(20,2)	(-11,4)	
L2C 13>	(1,39)	(-1,19)	(-7,4)	(-16,3)	(2,8)	(5,27)	(3,5)	(-11,5)	(-23,4)	(-13,7)	(-2,9)	(-42,2)	(-22,1)	(32,1)	(-18,3)	(19,3)	
L2C 14>	(-32,4)	(-4,4)	(1,22)	(5,12)	(-3,4)	(-1,6)	(-5,5)	(-6,4)	(10,3)	(-11,1)	(2,10)	(6,3)	(-18,4)	(18,2)	(0,11)	(7,2)	
L2C 15>	(5,30)	(10,7)	(1,19)	(4,4)	(-14,7)	(2,5)	(-51,3)	(-1,11)	(-32,5)	(-15,11)	(-2,1)	(-17,5)	(-16,8)	(13,1)	(17,1)	(-4,2)	
L2C 16>	(-18,5)	(1,24)	(-7,5)	(6,3)	(-11,4)	(-14,1)	(3,2)	(-25,5)	(-20,3)	(-15,5)	(-16,25)	(-32,3)	(-12,3)	(5,14)	(16,3)	(17,2)	
L2C 17>	(4,8)	(-19,3)	(-24,4)	(14,2)	(-1,9)	(5,12)	(1,28)	(-16,11)	(-17,2)	(26,1)	(16,1)	(0,8)	(-30,1)	(-33,3)	(-29,2)	(-3,5)	
L2C 18>	(1,21)	(2,7)	(-18,9)	(-1,13)	(-17,1)	(5,5)	(36,1)	(-6,3)	(-24,2)	(-7,3)	(-13,3)	(4,5)	(-32,3)	(23,1)	(14,1)	(-5,9)	
L2C 19>	(-19,6)	(-11,1)	(-4,4)	(-32,2)	(1,7)	(-18,3)	(-22,7)	(-1,3)	(0,1)	(-8,5)	(-10,1)	(-13,2)	(-34,4)	(5,4)	(-5,8)	(-39,2)	
L2C 20>	(1,11)	(5,9)	(-1,12)	(-9,1)	(6,5)	(-6,1)	(10,3)	(-22,5)	(31,1)	(-3,3)	(32,1)	(11,5)	(12,10)	(-5,7)	(-34,2)	(-18,3)	
L2C 21>	(-1,9)	(1,9)	(-2,1)	(-36,2)	(-15,1)	(5,7)	(-16,1)	(-39,2)	(-6,2)	(2,1)	(-42,1)	(14,1)	(-18,1)	(3,1)	(-17,1)	(32,1)	
L2C 22>	(1,5)	(-35,1)	(-1,12)	(-51,2)	(-8,1)	(-53,1)	(6,4)	(-22,7)	(-2,3)	(-9,2)	(-3,1)	(-21,3)	(8,1)	(-32,5)	(-25,2)	(10,2)	
L2C 23>	(32,2)	(-1,6)	(-5,1)	(-6,2)	(29,1)	(-22,27)	(6,5)	(1,3)	(19,1)	(4,1)	(13,3)	(27,2)	(-21,2)	(20,1)	(24,1)	(11,5)	
L2C 24>	(6,3)	(1,12)	(-24,3)	(-22,5)	(2,1)	(-2,3)	(-16,3)	(-32,1)	(-1,3)	(-15,5)	(-29,1)	(-55,1)	(-14,4)	(18,1)	(-25,3)	(27,2)	
L2C 25>	(1,13)	(7,5)	(-25,13)	(3,6)	(-2,3)	(-38,1)	(-35,1)	(-17,2)	(-26,2)	(-1,7)	(-15,1)	(0,2)	(34,1)	(-20,2)	(-39,1)	(-24,4)	
L2C 26>	(1,24)	(-1,10)	(-13,1)	(-18,2)	(-4,3)	(-39,5)	(6,1)	(5,7)	(-6,1)	(2,2)	(-10,2)	(-8,1)	(-30,2)	(-26,2)	(-17,2)	(-3,1)	
L2C 27>	(1,16)	(3,5)	(6,2)	(-27,3)	(-1,10)	(-11,1)	(13,2)	(-12,2)	(15,2)	(-14,10)	(-22,3)	(5,2)	(-4,6)	(-28,6)	(-23,2)	(-26,3)	
L2C 28>	(1,14)	(-4,4)	(3,4)	(2,4)	(-29,2)	(-41,2)	(6,3)	(-8,1)	(-5,3)	(-38,1)	(-22,5)	(4,6)	(-10,5)	(9,1)	(-14,3)	(-1,5)	
L2C 29>	(-27,1)	(1,10)	(-2,2)	(-1,5)	(15,1)	(-35,1)	(-12,2)	(-19,1)	(3,3)	(-39,2)	(0,1)	(-30,4)	(-32,1)	(-17,2)	(-13,1)	(-5,1)	
L2C 30>	(5,2)	(-41,2)	(-19,3)	(1,5)	(-34,1)	(-32,5)	(0,4)	(2,1)	(-2,5)	(-21,1)	(-11,2)	(-31,2)	(-24,1)	(-8,1)	(10,1)	(-1,4)	
L2C 31>	(-1,1)	(-2,2)	(-30,1)	(1,19)	(-3,1)	(-52,1)	(3,1)	(-25,1)	(2,2)	(-20,1)	(19,2)	(-51,1)	(-8,1)	(-4,1)	(-16,1)	(-21,1)	
L2C 32>	(1,26)	(0,3)	(-7,2)	(4,2)	(-34,1)	(-31,2)	(-33,1)	(-17,1)	(-9,2)	(-53,1)	(-32,12)	(-19,3)	(-25,1)	(2,4)	(-52,1)	(-29,1)	
L2C 33>	(6,3)	(-31,1)	(1,16)	(13,1)	(-1,5)	(-34,2)	(-5,1)	(-32,6)	(-60,1)	(-25,1)	(0,3)	(-44,1)	(-33,4)	(-51,1)	(-6,2)	(-16,1)	
L2C 34>	(-2,1)	(-33,5)	(5,1)	(1,18)	(-32,2)	(4,1)	(15,1)	(-19,2)	(-16,2)	(-24,1)	(-59,1)	(-1,2)	(-28,1)	(0,1)	(-45,3)	(-38,1)	
L2C 35>	(4,1)	(1,2)	(-39,3)	(-16,2)	(-1,7)	(-2,1)	(-30,1)	(23,1)	(5,4)	(-34,1)	(-42,3)	(-25,1)	(-45,1)	(0,1)	(-8,1)	(-27,1)	
L2C 36>	(1,3)	(-36,2)	(-5,1)	(-25,1)	(-24,1)	(-7,1)	(-17,2)	(-50,1)	(-19,2)	(-1,4)	(-38,6)	(19,1)	(-12,1)	(-2,1)	(-27,2)	(-39,2)	
L2C 37>	(-23,1)	(1,2)	(-39,4)	(-34,1)	(5,3)	(-16,1)	(-1,1)	(-37,2)	(-22,1)	(-42,1)	(-55,1)	(-46,2)	(-50,1)	(-51,1)	(6,1)	(1,0)	
L2C 38>	(5,2)	(1,2)	(-5,1)	(-39,10)	(-49,1)	(-40,1)	(-12,1)	(-16,1)	(-1,2)	(-22,1)	(6,1)	(-25,1)	(11,1)	(-17,2)	(-45,1)	(-42,1)	
L2C 39>	(2,1)	(-22,1)	(-5,1)	(-39,2)	(-15,3)	(8,1)	(11,1)	(1,2)	(5,1)	(-55,1)	(-41,2)	(17,1)	(-63,1)	(-43,1)	(1,0)	(1,0)	
L2C 40>	(1,17)	(9,2)	(-39,9)	(-21,1)	(0,1)	(-1,4)	(-17,1)	(-31,2)	(7,2)	(-10,1)	(-51,3)	(-42,2)	(-6,3)	(-34,1)	(-8,1)	(-4,2)	
L2C 41>	(-10,1)	(1,17)	(5,2)	(4,1)	(-42,2)	(-38,1)	(-49,1)	(-41,1)	(-1,1)	(-27,1)	(-43,1)	(-40,1)	(2,1)	(-39,1)	(10,1)	(8,1)	
L2C 42>	(1,12)	(-39,1)	(-52,1)	(-34,1)	(-27,1)	(-1,1)	(0,1)	(-36,1)	(-41,2)	(-25,1)	(-2,1)	(-42,1)	(12,1)	(17,1)	(1,0)	(1,0)	
L2C 43>	(-51,1)	(1,1)	(-6,1)	(-39,3)	(-38,1)	(-22,1)	(-43,1)	(5,3)	(-19,1)	(-32,1)	(-28,1)	(-26,1)	(-59,1)	(-10,1)	(-52,2)	(-30,1)	
L2C 44>	(-24,1)	(-46,1)	(1,5)	(-33,1)	(-43,1)	(-47,1)	(-23,1)	(-3,2)	(-61,1)	(-54,2)	(-56,1)	(1,0)	(1,0)	(1,0)	(1,0)	(1,0)	
L2C 45>	(2,1)	(-49,1)	(-47,1)	(-43,1)	(-57,1)	(8,1)	(1,0)	(1,0)	(1,0)	(1,0)	(1,0)	(1,0)	(1,0)	(1,0)	(1,0)	(1,0)	
L2C 46>	(-42,1)	(4,2)	(-2,1)	(-1,1)	(-37,1)	(-46,1)	(-16,1)	(1,2)	(-47,1)	(-39,1)	(-27,1)	(1,0)	(1,0)	(1,0)	(1,0)	(1,0)	
L2C 47>	(12,1)	(-9,1)	(-31,1)	(-32,1)	(-19,1)	(3,1)	(-56,1)	(1,2)	(-7,1)	(1,0)	(1,0)	(1,0)	(1,0)	(1,0)	(1,0)	(1,0)	
L2C 48>	(-47,1)	(0,1)	(-50,1)	(-49,1)	(1,2)	(-41,1)	(-3,1)	(-52,1)	(1,0)	(1,0)	(1,0)	(1,0)	(1,0)	(1,0)	(1,0)	(1,0)	
L2C 49>	(-50,1)	(1,5)	(-1,2)	(-4,1)	(0,1)	(5,2)	(-52,2)	(-49,2)	(6,1)	(-27,1)	(-11,1)	(1,0)	(1,0)	(1,0)	(1,0)	(1,0)	
L2C 50>	(-4,2)	(-42,1)	(1,3)	(-1,2)	(-39,3)	(-51,1)	(-60,3)	(-55,3)	(-50,1)	(0,2)	(-49,2)	(-21,1)	(-41,1)	(-10,1)	(-33,3)	(3,1)	
L2C 51>	(-49,2)	(4,1)	(-51,2)	(5,1)	(-53,1)	(1,13)	(-55,1)	(-59,2)	(-33,2)	(-39,1)	(-26,1)	(-40,1)	(-21,1)	(-1,1)	(2,1)	(-22,1)	
L2C 52>	(-1,1)	(-52,1)	(-53,1)	(5,1)	(-51,1)	(3,1)	(-7,1)	(-28,1)	(2,2)	(-44,1)	(-49,1)	(-2,1)	(-48,1)	(1,4)	(1,0)	(1,0)	
L2C 53>	(1,2)	(0,1)	(-2,1)	(-24,1)	(-22,1)	(-34,1)	(-55,1)	(-25,1)	(-37,1)	(-33,1)	(1,0)	(1,0)	(1,0)	(1,0)	(1,0)	(1,0)	
L2C 54>	(-17,1)	(-55,2)	(1,2)	(-21,1)	(-54,1)	(0,3)	(5,1)	(-37,1)	(-3,1)	(-5,1)	(-1,1)	(-22,1)	(-45,1)	(-41,1)	(-42,1)	(-39,1)	
L2C 55>	(0,9)	(-45,1)	(-60,1)	(-21,1)	(-50,5)	(-41,3)	(1,2)	(-53,1)	(-55,13)	(-54,1)	(-43,1)	(-39,1)	(-23,1)	(-22,1)	(-42,1)	(-18,1)	
L2C 56>	(5,1)	(-43,1)	(3,1)	(-22,1)	(1,1)	(-55,1)	(2,1)	(-52,1)	(1,0)	(1,0)	(1,0)	(1,0)	(1,0)	(1,0)	(1,0)	(1,0)	
L2C 57>	(-49,1)	(-42,1)	(1,5)	(-30,2)	(-5,1)	(-43,1)	(-51,1)	(1,0)	(1,0)	(1,0)	(1,0)	(1,0)	(1,0)	(1,0)	(1,0)	(1,0)	
L2C 58>	(-1,1)	(1,1)	(-49,2)	(-22,1)	(1,0)	(1,0)	(1,0)	(1,0)	(1,0)	(1,0)	(1,0)	(1,0)	(1,0)	(1,0)	(1,0)	(1,0)	
L2C 59>	(1,5)	(-59,2)	(-43,2)	(-55,1)	(-17,1)	(-2,1)	(-27,2)	(-8,3)	(-4,1)	(-49,2)	(-48,1)	(-42,1)	(1,0)	(1,0)	(1,0)	(1,0)	
L2C 60>	(-2,1)	(-50,2)	(-1,1)	(-45,1)	(1,2)	(-5,1)	(-49,1)	(1,0)	(1,0)	(1,0)	(1,0)	(1,0)	(1,0)	(1,0)	(1,0)	(1,0)	
L2C 61>	(1,0)	(1,0)	(1,0)	(1,0)	(1,0)	(1,0)	(1,0)	(1,0)	(1,0)	(1,0)	(1,0)	(1,0)	(1,0)	(1,0)	(1,0)	(1,0)	
L2C 62>	(-46,1)	(1,0)	(1,0)	(1,0)	(1,0)	(1,0)	(1,0)	(1,0)	(1,0)	(1,0)	(1,0)	(1,0)	(1,0)	(1,0)	(1,0)	(1,0)	
L2C 63>	(-61,1)	(1,0)	(1,0)	(1,0)	(1,0)	(1,0)	(1,0)	(1,0)	(1,0)	(1,0)	(1,0)	(1,0)	(1,0)	(1,0)	(1,0)	(1,0)	

DRAM Statistics
 CHANNEL 0
 RQ ROW_BUFFER_HIT:      89750  ROW_BUFFER_MISS:      18669
 DBUS_CONGESTED:      46166
 WQ ROW_BUFFER_HIT:       2397  ROW_BUFFER_MISS:       3090  FULL:          0

 AVG_CONGESTED_CYCLE: 6
