Initialize SIGNATURE TABLE
ST_SET: 1
ST_WAY: 256
ST_TAG_BIT: 16
ST_TAG_MASK: ffff

Initialize PATTERN TABLE
PT_SET: 512
PT_WAY: 4
SIG_DELTA_BIT: 7
C_SIG_BIT: 4
C_DELTA_BIT: 4

Initialize PREFETCH FILTER
FILTER_SET: 1024

*** ChampSim Multicore Out-of-Order Simulator ***

Warmup Instructions: 1000000
Simulation Instructions: 10000000
Number of CPUs: 4
LLC sets: 8192
LLC ways: 16
Off-chip DRAM Size: 4096 MB Channels: 1 Width: 64-bit Data Rate: 3200 MT/s

CPU 0 runs /home/virtualcse/Data-Prefetching/ChampSim/dpc3_traces/641.leela_s-334B.champsimtrace.xz
CPU 1 runs /home/virtualcse/Data-Prefetching/ChampSim/dpc3_traces/603.bwaves_s-1080B.champsimtrace.xz
CPU 2 runs /home/virtualcse/Data-Prefetching/ChampSim/dpc3_traces/648.exchange2_s-1699B.champsimtrace.xz
CPU 3 runs /home/virtualcse/Data-Prefetching/ChampSim/dpc3_traces/623.xalancbmk_s-202B.champsimtrace.xz

Warmup complete CPU 0 instructions: 1000002 cycles: 418976 (Simulation time: 0 hr 0 min 8 sec) 
Warmup complete CPU 1 instructions: 1224972 cycles: 418975 (Simulation time: 0 hr 0 min 8 sec) 
Warmup complete CPU 2 instructions: 1370009 cycles: 418975 (Simulation time: 0 hr 0 min 8 sec) 
Warmup complete CPU 3 instructions: 1176657 cycles: 418975 (Simulation time: 0 hr 0 min 8 sec) 

Heartbeat CPU 2 instructions: 10000001 cycles: 4088456 heartbeat IPC: 2.44591 cumulative IPC: 2.35183 (Simulation time: 0 hr 0 min 37 sec) 
Heartbeat CPU 1 instructions: 10000001 cycles: 4624359 heartbeat IPC: 2.16246 cumulative IPC: 2.08662 (Simulation time: 0 hr 0 min 42 sec) 
Finished CPU 2 instructions: 10000001 cycles: 4251654 cumulative IPC: 2.35203 (Simulation time: 0 hr 0 min 42 sec) 
Finished CPU 1 instructions: 10000002 cycles: 4796864 cumulative IPC: 2.0847 (Simulation time: 0 hr 0 min 47 sec) 
Heartbeat CPU 2 instructions: 20000000 cycles: 8280482 heartbeat IPC: 2.38548 cumulative IPC: 2.36977 (Simulation time: 0 hr 1 min 14 sec) 
Heartbeat CPU 3 instructions: 10000003 cycles: 8840326 heartbeat IPC: 1.13118 cumulative IPC: 1.04774 (Simulation time: 0 hr 1 min 18 sec) 
Heartbeat CPU 1 instructions: 20000003 cycles: 9447021 heartbeat IPC: 2.07354 cumulative IPC: 2.07963 (Simulation time: 0 hr 1 min 23 sec) 
Finished CPU 3 instructions: 10000002 cycles: 9544965 cumulative IPC: 1.04767 (Simulation time: 0 hr 1 min 27 sec) 
Heartbeat CPU 0 instructions: 10000002 cycles: 10327927 heartbeat IPC: 0.968249 cumulative IPC: 0.90827 (Simulation time: 0 hr 1 min 29 sec) 
Finished CPU 0 instructions: 10000000 cycles: 11008273 cumulative IPC: 0.908408 (Simulation time: 0 hr 1 min 38 sec) 

CPU 0 Branch Prediction Accuracy: 86.1527% MPKI: 16.139 Average ROB Occupancy at Mispredict: 30.6575

CPU 1 Branch Prediction Accuracy: 93.7877% MPKI: 7.23057 Average ROB Occupancy at Mispredict: 83.5511

CPU 2 Branch Prediction Accuracy: 97.2602% MPKI: 3.64724 Average ROB Occupancy at Mispredict: 50.0077

CPU 3 Branch Prediction Accuracy: 99.9798% MPKI: 0.0514156 Average ROB Occupancy at Mispredict: 129.73

ChampSim completed all CPUs

Total Simulation Statistics (not including warmup)

CPU 0 cumulative IPC: 0.908408 instructions: 10000000 cycles: 11008273
L1D TOTAL     ACCESS:    3016576  HIT:    3003056  MISS:      13520
L1D LOAD      ACCESS:    1832254  HIT:    1821814  MISS:      10440
L1D RFO       ACCESS:    1184322  HIT:    1181242  MISS:       3080
L1D PREFETCH  ACCESS:          0  HIT:          0  MISS:          0
L1D WRITEBACK ACCESS:          0  HIT:          0  MISS:          0
L1I TOTAL     ACCESS:     960661  HIT:     957331  MISS:       3330
L1I LOAD      ACCESS:     960661  HIT:     957331  MISS:       3330
L1I RFO       ACCESS:          0  HIT:          0  MISS:          0
L1I PREFETCH  ACCESS:          0  HIT:          0  MISS:          0
L1I WRITEBACK ACCESS:          0  HIT:          0  MISS:          0
L2C TOTAL     ACCESS:      35638  HIT:      34606  MISS:       1032
L2C LOAD      ACCESS:      13770  HIT:      12943  MISS:        827
L2C RFO       ACCESS:       3077  HIT:       3002  MISS:         75
L2C PREFETCH  ACCESS:      13881  HIT:      13751  MISS:        130
L2C WRITEBACK ACCESS:       4910  HIT:       4910  MISS:          0
LLC TOTAL     ACCESS:       4643  HIT:       2421  MISS:       2222
LLC LOAD      ACCESS:        816  HIT:        201  MISS:        615
LLC RFO       ACCESS:         75  HIT:         13  MISS:         62
LLC PREFETCH  ACCESS:       3752  HIT:       2207  MISS:       1545
LLC WRITEBACK ACCESS:          0  HIT:          0  MISS:          0

CPU 1 cumulative IPC: 2.09644 instructions: 23078182 cycles: 11008274
L1D TOTAL     ACCESS:    3825549  HIT:    3753740  MISS:      71809
L1D LOAD      ACCESS:    2469622  HIT:    2462759  MISS:       6863
L1D RFO       ACCESS:    1355927  HIT:    1290981  MISS:      64946
L1D PREFETCH  ACCESS:          0  HIT:          0  MISS:          0
L1D WRITEBACK ACCESS:          0  HIT:          0  MISS:          0
L1I TOTAL     ACCESS:    1187139  HIT:    1187135  MISS:          4
L1I LOAD      ACCESS:    1187139  HIT:    1187135  MISS:          4
L1I RFO       ACCESS:          0  HIT:          0  MISS:          0
L1I PREFETCH  ACCESS:          0  HIT:          0  MISS:          0
L1I WRITEBACK ACCESS:          0  HIT:          0  MISS:          0
L2C TOTAL     ACCESS:     140107  HIT:      68639  MISS:      71468
L2C LOAD      ACCESS:       6867  HIT:       3599  MISS:       3268
L2C RFO       ACCESS:      64946  HIT:          2  MISS:      64944
L2C PREFETCH  ACCESS:       3406  HIT:        150  MISS:       3256
L2C WRITEBACK ACCESS:      64888  HIT:      64888  MISS:          0
LLC TOTAL     ACCESS:     179327  HIT:     107852  MISS:      71475
LLC LOAD      ACCESS:       3268  HIT:       3096  MISS:        172
LLC RFO       ACCESS:      64944  HIT:          1  MISS:      64943
LLC PREFETCH  ACCESS:      53013  HIT:      46653  MISS:       6360
LLC WRITEBACK ACCESS:      58102  HIT:      58102  MISS:          0

CPU 2 cumulative IPC: 2.37088 instructions: 26099331 cycles: 11008274
L1D TOTAL     ACCESS:    6876438  HIT:    6876372  MISS:         66
L1D LOAD      ACCESS:    3046663  HIT:    3046645  MISS:         18
L1D RFO       ACCESS:    3829775  HIT:    3829727  MISS:         48
L1D PREFETCH  ACCESS:          0  HIT:          0  MISS:          0
L1D WRITEBACK ACCESS:          0  HIT:          0  MISS:          0
L1I TOTAL     ACCESS:    1763407  HIT:    1763407  MISS:          0
L1I LOAD      ACCESS:    1763407  HIT:    1763407  MISS:          0
L1I RFO       ACCESS:          0  HIT:          0  MISS:          0
L1I PREFETCH  ACCESS:          0  HIT:          0  MISS:          0
L1I WRITEBACK ACCESS:          0  HIT:          0  MISS:          0
L2C TOTAL     ACCESS:         82  HIT:         16  MISS:         66
L2C LOAD      ACCESS:         18  HIT:          0  MISS:         18
L2C RFO       ACCESS:         48  HIT:          0  MISS:         48
L2C PREFETCH  ACCESS:         16  HIT:         16  MISS:          0
L2C WRITEBACK ACCESS:          0  HIT:          0  MISS:          0
LLC TOTAL     ACCESS:         78  HIT:          4  MISS:         74
LLC LOAD      ACCESS:         18  HIT:          3  MISS:         15
LLC RFO       ACCESS:         48  HIT:          0  MISS:         48
LLC PREFETCH  ACCESS:         12  HIT:          1  MISS:         11
LLC WRITEBACK ACCESS:          0  HIT:          0  MISS:          0

CPU 3 cumulative IPC: 1.04933 instructions: 11551310 cycles: 11008274
L1D TOTAL     ACCESS:    1824809  HIT:    1534093  MISS:     290716
L1D LOAD      ACCESS:    1619298  HIT:    1328582  MISS:     290716
L1D RFO       ACCESS:     205511  HIT:     205511  MISS:          0
L1D PREFETCH  ACCESS:          0  HIT:          0  MISS:          0
L1D WRITEBACK ACCESS:          0  HIT:          0  MISS:          0
L1I TOTAL     ACCESS:     565033  HIT:     565033  MISS:          0
L1I LOAD      ACCESS:     565033  HIT:     565033  MISS:          0
L1I RFO       ACCESS:          0  HIT:          0  MISS:          0
L1I PREFETCH  ACCESS:          0  HIT:          0  MISS:          0
L1I WRITEBACK ACCESS:          0  HIT:          0  MISS:          0
L2C TOTAL     ACCESS:     377032  HIT:      86257  MISS:     290775
L2C LOAD      ACCESS:     290716  HIT:      84704  MISS:     206012
L2C RFO       ACCESS:          0  HIT:          0  MISS:          0
L2C PREFETCH  ACCESS:      86308  HIT:       1545  MISS:      84763
L2C WRITEBACK ACCESS:          8  HIT:          8  MISS:          0
LLC TOTAL     ACCESS:    1728980  HIT:    1695759  MISS:      33221
LLC LOAD      ACCESS:     174508  HIT:     173048  MISS:       1460
LLC RFO       ACCESS:          0  HIT:          0  MISS:          0
LLC PREFETCH  ACCESS:    1554464  HIT:    1522703  MISS:      31761
LLC WRITEBACK ACCESS:          8  HIT:          8  MISS:          0

Region of Interest Statistics

CPU 0 cumulative IPC: 0.908408 instructions: 10000000 cycles: 11008273
L1D TOTAL     ACCESS:    3016576  HIT:    3003056  MISS:      13520
L1D LOAD      ACCESS:    1832254  HIT:    1821814  MISS:      10440
L1D RFO       ACCESS:    1184322  HIT:    1181242  MISS:       3080
L1D PREFETCH  ACCESS:          0  HIT:          0  MISS:          0
L1D WRITEBACK ACCESS:          0  HIT:          0  MISS:          0
L1D PREFETCH  REQUESTED:          0  ISSUED:          0  USEFUL:          0  USELESS:          0
L1D AVERAGE MISS LATENCY: 24.9464 cycles
L1I TOTAL     ACCESS:     960661  HIT:     957331  MISS:       3330
L1I LOAD      ACCESS:     960661  HIT:     957331  MISS:       3330
L1I RFO       ACCESS:          0  HIT:          0  MISS:          0
L1I PREFETCH  ACCESS:          0  HIT:          0  MISS:          0
L1I WRITEBACK ACCESS:          0  HIT:          0  MISS:          0
L1I PREFETCH  REQUESTED:          0  ISSUED:          0  USEFUL:          0  USELESS:          0
L1I AVERAGE MISS LATENCY: 13.5342 cycles
L2C TOTAL     ACCESS:      35638  HIT:      34606  MISS:       1032
L2C LOAD      ACCESS:      13770  HIT:      12943  MISS:        827
L2C RFO       ACCESS:       3077  HIT:       3002  MISS:         75
L2C PREFETCH  ACCESS:      13881  HIT:      13751  MISS:        130
L2C WRITEBACK ACCESS:       4910  HIT:       4910  MISS:          0
L2C PREFETCH  REQUESTED:      24507  ISSUED:      24491  USEFUL:        106  USELESS:          0
L2C AVERAGE MISS LATENCY: 145.906 cycles
LLC TOTAL     ACCESS:       4643  HIT:       2421  MISS:       2222
LLC LOAD      ACCESS:        816  HIT:        201  MISS:        615
LLC RFO       ACCESS:         75  HIT:         13  MISS:         62
LLC PREFETCH  ACCESS:       3752  HIT:       2207  MISS:       1545
LLC WRITEBACK ACCESS:          0  HIT:          0  MISS:          0
LLC PREFETCH  REQUESTED:          0  ISSUED:          0  USEFUL:      56697  USELESS:       2428
LLC AVERAGE MISS LATENCY: 4986.31 cycles
Major fault: 0 Minor fault: 333

CPU 1 cumulative IPC: 2.0847 instructions: 10000002 cycles: 4796864
L1D TOTAL     ACCESS:    1722441  HIT:    1684889  MISS:      37552
L1D LOAD      ACCESS:    1089360  HIT:    1085779  MISS:       3581
L1D RFO       ACCESS:     633081  HIT:     599110  MISS:      33971
L1D PREFETCH  ACCESS:          0  HIT:          0  MISS:          0
L1D WRITEBACK ACCESS:          0  HIT:          0  MISS:          0
L1D PREFETCH  REQUESTED:          0  ISSUED:          0  USEFUL:          0  USELESS:          0
L1D AVERAGE MISS LATENCY: 262.825 cycles
L1I TOTAL     ACCESS:     589705  HIT:     589705  MISS:          0
L1I LOAD      ACCESS:     589705  HIT:     589705  MISS:          0
L1I RFO       ACCESS:          0  HIT:          0  MISS:          0
L1I PREFETCH  ACCESS:          0  HIT:          0  MISS:          0
L1I WRITEBACK ACCESS:          0  HIT:          0  MISS:          0
L1I PREFETCH  REQUESTED:          0  ISSUED:          0  USEFUL:          0  USELESS:          0
L1I AVERAGE MISS LATENCY: inf cycles
L2C TOTAL     ACCESS:      73566  HIT:      36199  MISS:      37367
L2C LOAD      ACCESS:       3581  HIT:       2254  MISS:       1327
L2C RFO       ACCESS:      33971  HIT:          2  MISS:      33969
L2C PREFETCH  ACCESS:       2129  HIT:         58  MISS:       2071
L2C WRITEBACK ACCESS:      33885  HIT:      33885  MISS:          0
L2C PREFETCH  REQUESTED:      54391  ISSUED:      54321  USEFUL:       3303  USELESS:          4
L2C AVERAGE MISS LATENCY: 237.472 cycles
LLC TOTAL     ACCESS:      92459  HIT:      55091  MISS:      37368
LLC LOAD      ACCESS:       1327  HIT:       1247  MISS:         80
LLC RFO       ACCESS:      33969  HIT:          0  MISS:      33969
LLC PREFETCH  ACCESS:      30085  HIT:      26766  MISS:       3319
LLC WRITEBACK ACCESS:      27078  HIT:      27078  MISS:          0
LLC PREFETCH  REQUESTED:          0  ISSUED:          0  USEFUL:      56697  USELESS:       2428
LLC AVERAGE MISS LATENCY: 296.499 cycles
Major fault: 0 Minor fault: 1157

CPU 2 cumulative IPC: 2.35203 instructions: 10000001 cycles: 4251654
L1D TOTAL     ACCESS:    2644327  HIT:    2644267  MISS:         60
L1D LOAD      ACCESS:    1172688  HIT:    1172676  MISS:         12
L1D RFO       ACCESS:    1471639  HIT:    1471591  MISS:         48
L1D PREFETCH  ACCESS:          0  HIT:          0  MISS:          0
L1D WRITEBACK ACCESS:          0  HIT:          0  MISS:          0
L1D PREFETCH  REQUESTED:          0  ISSUED:          0  USEFUL:          0  USELESS:          0
L1D AVERAGE MISS LATENCY: 205.033 cycles
L1I TOTAL     ACCESS:     678884  HIT:     678884  MISS:          0
L1I LOAD      ACCESS:     678884  HIT:     678884  MISS:          0
L1I RFO       ACCESS:          0  HIT:          0  MISS:          0
L1I PREFETCH  ACCESS:          0  HIT:          0  MISS:          0
L1I WRITEBACK ACCESS:          0  HIT:          0  MISS:          0
L1I PREFETCH  REQUESTED:          0  ISSUED:          0  USEFUL:          0  USELESS:          0
L1I AVERAGE MISS LATENCY: -nan cycles
L2C TOTAL     ACCESS:         66  HIT:          6  MISS:         60
L2C LOAD      ACCESS:         12  HIT:          0  MISS:         12
L2C RFO       ACCESS:         48  HIT:          0  MISS:         48
L2C PREFETCH  ACCESS:          6  HIT:          6  MISS:          0
L2C WRITEBACK ACCESS:          0  HIT:          0  MISS:          0
L2C PREFETCH  REQUESTED:        310  ISSUED:        310  USEFUL:          2  USELESS:          0
L2C AVERAGE MISS LATENCY: 186.983 cycles
LLC TOTAL     ACCESS:         62  HIT:          1  MISS:         61
LLC LOAD      ACCESS:         12  HIT:          1  MISS:         11
LLC RFO       ACCESS:         48  HIT:          0  MISS:         48
LLC PREFETCH  ACCESS:          2  HIT:          0  MISS:          2
LLC WRITEBACK ACCESS:          0  HIT:          0  MISS:          0
LLC PREFETCH  REQUESTED:          0  ISSUED:          0  USEFUL:      56697  USELESS:       2428
LLC AVERAGE MISS LATENCY: 181633 cycles
Major fault: 0 Minor fault: 11

CPU 3 cumulative IPC: 1.04767 instructions: 10000002 cycles: 9544965
L1D TOTAL     ACCESS:    1586119  HIT:    1333896  MISS:     252223
L1D LOAD      ACCESS:    1408338  HIT:    1156115  MISS:     252223
L1D RFO       ACCESS:     177781  HIT:     177781  MISS:          0
L1D PREFETCH  ACCESS:          0  HIT:          0  MISS:          0
L1D WRITEBACK ACCESS:          0  HIT:          0  MISS:          0
L1D PREFETCH  REQUESTED:          0  ISSUED:          0  USEFUL:          0  USELESS:          0
L1D AVERAGE MISS LATENCY: 40.3628 cycles
L1I TOTAL     ACCESS:     488815  HIT:     488815  MISS:          0
L1I LOAD      ACCESS:     488815  HIT:     488815  MISS:          0
L1I RFO       ACCESS:          0  HIT:          0  MISS:          0
L1I PREFETCH  ACCESS:          0  HIT:          0  MISS:          0
L1I WRITEBACK ACCESS:          0  HIT:          0  MISS:          0
L1I PREFETCH  REQUESTED:          0  ISSUED:          0  USEFUL:          0  USELESS:          0
L1I AVERAGE MISS LATENCY: -nan cycles
L2C TOTAL     ACCESS:     327330  HIT:      75057  MISS:     252273
L2C LOAD      ACCESS:     252223  HIT:      73795  MISS:     178428
L2C RFO       ACCESS:          0  HIT:          0  MISS:          0
L2C PREFETCH  ACCESS:      75101  HIT:       1256  MISS:      73845
L2C WRITEBACK ACCESS:          6  HIT:          6  MISS:          0
L2C PREFETCH  REQUESTED:    2926955  ISSUED:    2915535  USEFUL:      96554  USELESS:         97
L2C AVERAGE MISS LATENCY: 34.2427 cycles
LLC TOTAL     ACCESS:    1490079  HIT:    1456890  MISS:      33189
LLC LOAD      ACCESS:     151547  HIT:     150098  MISS:       1449
LLC RFO       ACCESS:          0  HIT:          0  MISS:          0
LLC PREFETCH  ACCESS:    1338526  HIT:    1306786  MISS:      31740
LLC WRITEBACK ACCESS:          6  HIT:          6  MISS:          0
LLC PREFETCH  REQUESTED:          0  ISSUED:          0  USEFUL:      56697  USELESS:       2428
LLC AVERAGE MISS LATENCY: 333.833 cycles
Major fault: 0 Minor fault: 1044

DRAM Statistics
 CHANNEL 0
 RQ ROW_BUFFER_HIT:      81246  ROW_BUFFER_MISS:      25746
 DBUS_CONGESTED:      26462
 WQ ROW_BUFFER_HIT:       2148  ROW_BUFFER_MISS:       2094  FULL:          0

 AVG_CONGESTED_CYCLE: 6
