Initialize SIGNATURE TABLE
ST_SET: 1
ST_WAY: 256
ST_TAG_BIT: 16
ST_TAG_MASK: ffff

Initialize PATTERN TABLE
PT_SET: 512
PT_WAY: 4
SIG_DELTA_BIT: 7
C_SIG_BIT: 4
C_DELTA_BIT: 4

Initialize PREFETCH FILTER
FILTER_SET: 1024

*** ChampSim Multicore Out-of-Order Simulator ***

Warmup Instructions: 1000000
Simulation Instructions: 10000000
Number of CPUs: 4
LLC sets: 8192
LLC ways: 16
Off-chip DRAM Size: 4096 MB Channels: 1 Width: 64-bit Data Rate: 3200 MT/s

CPU 0 runs /home/virtualcse/Data-Prefetching/ChampSim/dpc3_traces/620.omnetpp_s-141B.champsimtrace.xz
CPU 1 runs /home/virtualcse/Data-Prefetching/ChampSim/dpc3_traces/623.xalancbmk_s-202B.champsimtrace.xz
CPU 2 runs /home/virtualcse/Data-Prefetching/ChampSim/dpc3_traces/603.bwaves_s-1080B.champsimtrace.xz
CPU 3 runs /home/virtualcse/Data-Prefetching/ChampSim/dpc3_traces/619.lbm_s-2676B.champsimtrace.xz

Warmup complete CPU 0 instructions: 1000001 cycles: 539164 (Simulation time: 0 hr 0 min 11 sec) 
Warmup complete CPU 1 instructions: 1513665 cycles: 539163 (Simulation time: 0 hr 0 min 11 sec) 
Warmup complete CPU 2 instructions: 1556466 cycles: 539163 (Simulation time: 0 hr 0 min 11 sec) 
Warmup complete CPU 3 instructions: 1591193 cycles: 539163 (Simulation time: 0 hr 0 min 11 sec) 

Heartbeat CPU 2 instructions: 10000001 cycles: 6009955 heartbeat IPC: 1.66391 cumulative IPC: 1.54338 (Simulation time: 0 hr 0 min 39 sec) 
Finished CPU 2 instructions: 10000002 cycles: 6961587 cumulative IPC: 1.43645 (Simulation time: 0 hr 0 min 46 sec) 
Heartbeat CPU 2 instructions: 20000003 cycles: 13504750 heartbeat IPC: 1.33426 cumulative IPC: 1.4225 (Simulation time: 0 hr 1 min 14 sec) 
Heartbeat CPU 2 instructions: 30000001 cycles: 18119121 heartbeat IPC: 2.16714 cumulative IPC: 1.61795 (Simulation time: 0 hr 1 min 37 sec) 
Heartbeat CPU 3 instructions: 10000002 cycles: 22106224 heartbeat IPC: 0.452361 cumulative IPC: 0.389891 (Simulation time: 0 hr 1 min 58 sec) 
Heartbeat CPU 2 instructions: 40000003 cycles: 22739449 heartbeat IPC: 2.16435 cumulative IPC: 1.73167 (Simulation time: 0 hr 2 min 1 sec) 
Finished CPU 3 instructions: 10000001 cycles: 25299855 cumulative IPC: 0.395259 (Simulation time: 0 hr 2 min 16 sec) 
Heartbeat CPU 2 instructions: 50000003 cycles: 27461739 heartbeat IPC: 2.11762 cumulative IPC: 1.79936 (Simulation time: 0 hr 2 min 24 sec) 
Heartbeat CPU 2 instructions: 60000000 cycles: 32197638 heartbeat IPC: 2.11153 cumulative IPC: 1.84606 (Simulation time: 0 hr 2 min 48 sec) 
Heartbeat CPU 2 instructions: 70000003 cycles: 36930808 heartbeat IPC: 2.11275 cumulative IPC: 1.88075 (Simulation time: 0 hr 3 min 11 sec) 
Heartbeat CPU 1 instructions: 10000003 cycles: 39672473 heartbeat IPC: 0.252064 cumulative IPC: 0.216857 (Simulation time: 0 hr 3 min 25 sec) 
Heartbeat CPU 2 instructions: 80000002 cycles: 41665058 heartbeat IPC: 2.11227 cumulative IPC: 1.9074 (Simulation time: 0 hr 3 min 35 sec) 
Heartbeat CPU 3 instructions: 20000000 cycles: 46246419 heartbeat IPC: 0.414247 cumulative IPC: 0.402755 (Simulation time: 0 hr 3 min 58 sec) 
Heartbeat CPU 2 instructions: 90000001 cycles: 46447313 heartbeat IPC: 2.09106 cumulative IPC: 1.92653 (Simulation time: 0 hr 3 min 59 sec) 
Finished CPU 1 instructions: 10000000 cycles: 46156945 cumulative IPC: 0.216652 (Simulation time: 0 hr 4 min 0 sec) 
Heartbeat CPU 2 instructions: 100000001 cycles: 51242928 heartbeat IPC: 2.08524 cumulative IPC: 1.94154 (Simulation time: 0 hr 4 min 24 sec) 
Heartbeat CPU 2 instructions: 110000000 cycles: 55982138 heartbeat IPC: 2.11006 cumulative IPC: 1.95595 (Simulation time: 0 hr 4 min 48 sec) 
Heartbeat CPU 2 instructions: 120000001 cycles: 60673070 heartbeat IPC: 2.13177 cumulative IPC: 1.96966 (Simulation time: 0 hr 5 min 12 sec) 
Heartbeat CPU 2 instructions: 130000000 cycles: 65361811 heartbeat IPC: 2.13277 cumulative IPC: 1.98146 (Simulation time: 0 hr 5 min 35 sec) 
Heartbeat CPU 3 instructions: 30000003 cycles: 69739581 heartbeat IPC: 0.425656 cumulative IPC: 0.410529 (Simulation time: 0 hr 5 min 58 sec) 
Heartbeat CPU 2 instructions: 140000001 cycles: 70054192 heartbeat IPC: 2.13111 cumulative IPC: 1.99156 (Simulation time: 0 hr 6 min 0 sec) 
Heartbeat CPU 0 instructions: 10000000 cycles: 72104798 heartbeat IPC: 0.138687 cumulative IPC: 0.125759 (Simulation time: 0 hr 6 min 10 sec) 
Heartbeat CPU 2 instructions: 150000003 cycles: 74803508 heartbeat IPC: 2.10557 cumulative IPC: 1.99885 (Simulation time: 0 hr 6 min 24 sec) 
Heartbeat CPU 1 instructions: 20000000 cycles: 79233672 heartbeat IPC: 0.252773 cumulative IPC: 0.234913 (Simulation time: 0 hr 6 min 46 sec) 
Heartbeat CPU 2 instructions: 160000001 cycles: 79567713 heartbeat IPC: 2.09899 cumulative IPC: 2.00489 (Simulation time: 0 hr 6 min 48 sec) 
Finished CPU 0 instructions: 10000000 cycles: 79576365 cumulative IPC: 0.125665 (Simulation time: 0 hr 6 min 51 sec) 

CPU 0 Branch Prediction Accuracy: 96.1891% MPKI: 5.6957 Average ROB Occupancy at Mispredict: 88.0992

CPU 1 Branch Prediction Accuracy: 99.9805% MPKI: 0.0490309 Average ROB Occupancy at Mispredict: 136.274

CPU 2 Branch Prediction Accuracy: 91.9765% MPKI: 11.1363 Average ROB Occupancy at Mispredict: 83.8966

CPU 3 Branch Prediction Accuracy: 97.4627% MPKI: 0.422568 Average ROB Occupancy at Mispredict: 320.708

ChampSim completed all CPUs

Total Simulation Statistics (not including warmup)

CPU 0 cumulative IPC: 0.125665 instructions: 10000000 cycles: 79576365
L1D TOTAL     ACCESS:    3973654  HIT:    3792037  MISS:     181617
L1D LOAD      ACCESS:    2232971  HIT:    2073792  MISS:     159179
L1D RFO       ACCESS:    1740683  HIT:    1718245  MISS:      22438
L1D PREFETCH  ACCESS:          0  HIT:          0  MISS:          0
L1D WRITEBACK ACCESS:          0  HIT:          0  MISS:          0
L1I TOTAL     ACCESS:    1095296  HIT:    1089125  MISS:       6171
L1I LOAD      ACCESS:    1095296  HIT:    1089125  MISS:       6171
L1I RFO       ACCESS:          0  HIT:          0  MISS:          0
L1I PREFETCH  ACCESS:          0  HIT:          0  MISS:          0
L1I WRITEBACK ACCESS:          0  HIT:          0  MISS:          0
L2C TOTAL     ACCESS:     305409  HIT:     167411  MISS:     137998
L2C LOAD      ACCESS:     165347  HIT:      49616  MISS:     115731
L2C RFO       ACCESS:      22438  HIT:       5240  MISS:      17198
L2C PREFETCH  ACCESS:      27029  HIT:      22090  MISS:       4939
L2C WRITEBACK ACCESS:      90595  HIT:      90465  MISS:        130
LLC TOTAL     ACCESS:     317843  HIT:      98071  MISS:     219772
LLC LOAD      ACCESS:     115638  HIT:      24477  MISS:      91161
LLC RFO       ACCESS:      17163  HIT:       4244  MISS:      12919
LLC PREFETCH  ACCESS:     118321  HIT:      30328  MISS:      87993
LLC WRITEBACK ACCESS:      66721  HIT:      39022  MISS:      27699

CPU 1 cumulative IPC: 0.234978 instructions: 18698707 cycles: 79576366
L1D TOTAL     ACCESS:    2945608  HIT:    2475745  MISS:     469863
L1D LOAD      ACCESS:    2612909  HIT:    2143046  MISS:     469863
L1D RFO       ACCESS:     332699  HIT:     332699  MISS:          0
L1D PREFETCH  ACCESS:          0  HIT:          0  MISS:          0
L1D WRITEBACK ACCESS:          0  HIT:          0  MISS:          0
L1I TOTAL     ACCESS:     914671  HIT:     914671  MISS:          0
L1I LOAD      ACCESS:     914671  HIT:     914671  MISS:          0
L1I RFO       ACCESS:          0  HIT:          0  MISS:          0
L1I PREFETCH  ACCESS:          0  HIT:          0  MISS:          0
L1I WRITEBACK ACCESS:          0  HIT:          0  MISS:          0
L2C TOTAL     ACCESS:     611769  HIT:     151572  MISS:     460197
L2C LOAD      ACCESS:     469863  HIT:     101262  MISS:     368601
L2C RFO       ACCESS:          0  HIT:          0  MISS:          0
L2C PREFETCH  ACCESS:     141893  HIT:      50297  MISS:      91596
L2C WRITEBACK ACCESS:         13  HIT:         13  MISS:          0
LLC TOTAL     ACCESS:    1418086  HIT:    1009446  MISS:     408640
LLC LOAD      ACCESS:     315615  HIT:     218742  MISS:      96873
LLC RFO       ACCESS:          0  HIT:          0  MISS:          0
LLC PREFETCH  ACCESS:    1102461  HIT:     790694  MISS:     311767
LLC WRITEBACK ACCESS:         10  HIT:         10  MISS:          0

CPU 2 cumulative IPC: 2.00562 instructions: 159600227 cycles: 79576366
L1D TOTAL     ACCESS:   21701644  HIT:   21624306  MISS:      77338
L1D LOAD      ACCESS:   15786155  HIT:   15778715  MISS:       7440
L1D RFO       ACCESS:    5915489  HIT:    5845591  MISS:      69898
L1D PREFETCH  ACCESS:          0  HIT:          0  MISS:          0
L1D WRITEBACK ACCESS:          0  HIT:          0  MISS:          0
L1I TOTAL     ACCESS:    2864198  HIT:    2864194  MISS:          4
L1I LOAD      ACCESS:    2864198  HIT:    2864194  MISS:          4
L1I RFO       ACCESS:          0  HIT:          0  MISS:          0
L1I PREFETCH  ACCESS:          0  HIT:          0  MISS:          0
L1I WRITEBACK ACCESS:          0  HIT:          0  MISS:          0
L2C TOTAL     ACCESS:     151468  HIT:      74663  MISS:      76805
L2C LOAD      ACCESS:       7444  HIT:       4600  MISS:       2844
L2C RFO       ACCESS:      69898  HIT:        104  MISS:      69794
L2C PREFETCH  ACCESS:       4284  HIT:        117  MISS:       4167
L2C WRITEBACK ACCESS:      69842  HIT:      69842  MISS:          0
LLC TOTAL     ACCESS:     181604  HIT:      99173  MISS:      82431
LLC LOAD      ACCESS:       2833  HIT:       2594  MISS:        239
LLC RFO       ACCESS:      69794  HIT:          0  MISS:      69794
LLC PREFETCH  ACCESS:      45986  HIT:      39128  MISS:       6858
LLC WRITEBACK ACCESS:      62991  HIT:      57451  MISS:       5540

CPU 3 cumulative IPC: 0.411646 instructions: 32757299 cycles: 79576366
L1D TOTAL     ACCESS:    8213421  HIT:    5835523  MISS:    2377898
L1D LOAD      ACCESS:    2477321  HIT:    2116997  MISS:     360324
L1D RFO       ACCESS:    5736100  HIT:    3718526  MISS:    2017574
L1D PREFETCH  ACCESS:          0  HIT:          0  MISS:          0
L1D WRITEBACK ACCESS:          0  HIT:          0  MISS:          0
L1I TOTAL     ACCESS:    3223788  HIT:    3223788  MISS:          0
L1I LOAD      ACCESS:    3223788  HIT:    3223788  MISS:          0
L1I RFO       ACCESS:          0  HIT:          0  MISS:          0
L1I PREFETCH  ACCESS:          0  HIT:          0  MISS:          0
L1I WRITEBACK ACCESS:          0  HIT:          0  MISS:          0
L2C TOTAL     ACCESS:    4482250  HIT:    3019216  MISS:    1463034
L2C LOAD      ACCESS:     360324  HIT:      85206  MISS:     275118
L2C RFO       ACCESS:    2017575  HIT:     914894  MISS:    1102681
L2C PREFETCH  ACCESS:      86774  HIT:       1588  MISS:      85186
L2C WRITEBACK ACCESS:    2017577  HIT:    2017528  MISS:         49
LLC TOTAL     ACCESS:    3339644  HIT:    1898516  MISS:    1441128
LLC LOAD      ACCESS:     224952  HIT:     178552  MISS:      46400
LLC RFO       ACCESS:    1102676  HIT:      21884  MISS:    1080792
LLC PREFETCH  ACCESS:     909243  HIT:     595342  MISS:     313901
LLC WRITEBACK ACCESS:    1102773  HIT:    1102738  MISS:         35

Region of Interest Statistics

CPU 0 cumulative IPC: 0.125665 instructions: 10000000 cycles: 79576365
L1D TOTAL     ACCESS:    3973654  HIT:    3792037  MISS:     181617
L1D LOAD      ACCESS:    2232971  HIT:    2073792  MISS:     159179
L1D RFO       ACCESS:    1740683  HIT:    1718245  MISS:      22438
L1D PREFETCH  ACCESS:          0  HIT:          0  MISS:          0
L1D WRITEBACK ACCESS:          0  HIT:          0  MISS:          0
L1D PREFETCH  REQUESTED:          0  ISSUED:          0  USEFUL:          0  USELESS:          0
L1D AVERAGE MISS LATENCY: 604.481 cycles
L1I TOTAL     ACCESS:    1095296  HIT:    1089125  MISS:       6171
L1I LOAD      ACCESS:    1095296  HIT:    1089125  MISS:       6171
L1I RFO       ACCESS:          0  HIT:          0  MISS:          0
L1I PREFETCH  ACCESS:          0  HIT:          0  MISS:          0
L1I WRITEBACK ACCESS:          0  HIT:          0  MISS:          0
L1I PREFETCH  REQUESTED:          0  ISSUED:          0  USEFUL:          0  USELESS:          0
L1I AVERAGE MISS LATENCY: 108.601 cycles
L2C TOTAL     ACCESS:     305409  HIT:     167411  MISS:     137998
L2C LOAD      ACCESS:     165347  HIT:      49616  MISS:     115731
L2C RFO       ACCESS:      22438  HIT:       5240  MISS:      17198
L2C PREFETCH  ACCESS:      27029  HIT:      22090  MISS:       4939
L2C WRITEBACK ACCESS:      90595  HIT:      90465  MISS:        130
L2C PREFETCH  REQUESTED:     191752  ISSUED:     191534  USEFUL:       1157  USELESS:       4118
L2C AVERAGE MISS LATENCY: 799.841 cycles
LLC TOTAL     ACCESS:     317843  HIT:      98071  MISS:     219772
LLC LOAD      ACCESS:     115638  HIT:      24477  MISS:      91161
LLC RFO       ACCESS:      17163  HIT:       4244  MISS:      12919
LLC PREFETCH  ACCESS:     118321  HIT:      30328  MISS:      87993
LLC WRITEBACK ACCESS:      66721  HIT:      39022  MISS:      27699
LLC PREFETCH  REQUESTED:          0  ISSUED:          0  USEFUL:     418372  USELESS:     339860
LLC AVERAGE MISS LATENCY: 8721.96 cycles
Major fault: 0 Minor fault: 23836

CPU 1 cumulative IPC: 0.216652 instructions: 10000000 cycles: 46156945
L1D TOTAL     ACCESS:    1590700  HIT:    1338994  MISS:     251706
L1D LOAD      ACCESS:    1412799  HIT:    1161093  MISS:     251706
L1D RFO       ACCESS:     177901  HIT:     177901  MISS:          0
L1D PREFETCH  ACCESS:          0  HIT:          0  MISS:          0
L1D WRITEBACK ACCESS:          0  HIT:          0  MISS:          0
L1D PREFETCH  REQUESTED:          0  ISSUED:          0  USEFUL:          0  USELESS:          0
L1D AVERAGE MISS LATENCY: 409.764 cycles
L1I TOTAL     ACCESS:     489134  HIT:     489134  MISS:          0
L1I LOAD      ACCESS:     489134  HIT:     489134  MISS:          0
L1I RFO       ACCESS:          0  HIT:          0  MISS:          0
L1I PREFETCH  ACCESS:          0  HIT:          0  MISS:          0
L1I WRITEBACK ACCESS:          0  HIT:          0  MISS:          0
L1I PREFETCH  REQUESTED:          0  ISSUED:          0  USEFUL:          0  USELESS:          0
L1I AVERAGE MISS LATENCY: -nan cycles
L2C TOTAL     ACCESS:     303543  HIT:      51779  MISS:     251764
L2C LOAD      ACCESS:     251706  HIT:      48749  MISS:     202957
L2C RFO       ACCESS:          0  HIT:          0  MISS:          0
L2C PREFETCH  ACCESS:      51832  HIT:       3025  MISS:      48807
L2C WRITEBACK ACCESS:          5  HIT:          5  MISS:          0
L2C PREFETCH  REQUESTED:    3375441  ISSUED:    3375429  USEFUL:     105868  USELESS:        167
L2C AVERAGE MISS LATENCY: 429.399 cycles
LLC TOTAL     ACCESS:     737108  HIT:     495412  MISS:     241696
LLC LOAD      ACCESS:     171806  HIT:     114512  MISS:      57294
LLC RFO       ACCESS:          0  HIT:          0  MISS:          0
LLC PREFETCH  ACCESS:     565296  HIT:     380894  MISS:     184402
LLC WRITEBACK ACCESS:          6  HIT:          6  MISS:          0
LLC PREFETCH  REQUESTED:          0  ISSUED:          0  USEFUL:     418372  USELESS:     339860
LLC AVERAGE MISS LATENCY: 7930.8 cycles
Major fault: 0 Minor fault: 1052

CPU 2 cumulative IPC: 1.43645 instructions: 10000002 cycles: 6961587
L1D TOTAL     ACCESS:    1711727  HIT:    1671521  MISS:      40206
L1D LOAD      ACCESS:    1091783  HIT:    1087945  MISS:       3838
L1D RFO       ACCESS:     619944  HIT:     583576  MISS:      36368
L1D PREFETCH  ACCESS:          0  HIT:          0  MISS:          0
L1D WRITEBACK ACCESS:          0  HIT:          0  MISS:          0
L1D PREFETCH  REQUESTED:          0  ISSUED:          0  USEFUL:          0  USELESS:          0
L1D AVERAGE MISS LATENCY: 1995.75 cycles
L1I TOTAL     ACCESS:     622120  HIT:     622118  MISS:          2
L1I LOAD      ACCESS:     622120  HIT:     622118  MISS:          2
L1I RFO       ACCESS:          0  HIT:          0  MISS:          0
L1I PREFETCH  ACCESS:          0  HIT:          0  MISS:          0
L1I WRITEBACK ACCESS:          0  HIT:          0  MISS:          0
L1I PREFETCH  REQUESTED:          0  ISSUED:          0  USEFUL:          0  USELESS:          0
L1I AVERAGE MISS LATENCY: 1446.5 cycles
L2C TOTAL     ACCESS:      78886  HIT:      38879  MISS:      40007
L2C LOAD      ACCESS:       3840  HIT:       2550  MISS:       1290
L2C RFO       ACCESS:      36368  HIT:          2  MISS:      36366
L2C PREFETCH  ACCESS:       2391  HIT:         40  MISS:       2351
L2C WRITEBACK ACCESS:      36287  HIT:      36287  MISS:          0
L2C PREFETCH  REQUESTED:      50755  ISSUED:      50735  USEFUL:       4209  USELESS:          4
L2C AVERAGE MISS LATENCY: 1980.4 cycles
LLC TOTAL     ACCESS:      92520  HIT:      51909  MISS:      40611
LLC LOAD      ACCESS:       1284  HIT:       1198  MISS:         86
LLC RFO       ACCESS:      36366  HIT:          0  MISS:      36366
LLC PREFETCH  ACCESS:      25328  HIT:      21761  MISS:       3567
LLC WRITEBACK ACCESS:      29542  HIT:      28950  MISS:        592
LLC PREFETCH  REQUESTED:          0  ISSUED:          0  USEFUL:     418372  USELESS:     339860
LLC AVERAGE MISS LATENCY: 47200.1 cycles
Major fault: 0 Minor fault: 1240

CPU 3 cumulative IPC: 0.395259 instructions: 10000001 cycles: 25299855
L1D TOTAL     ACCESS:    2536252  HIT:    1779063  MISS:     757189
L1D LOAD      ACCESS:     758156  HIT:     643416  MISS:     114740
L1D RFO       ACCESS:    1778096  HIT:    1135647  MISS:     642449
L1D PREFETCH  ACCESS:          0  HIT:          0  MISS:          0
L1D WRITEBACK ACCESS:          0  HIT:          0  MISS:          0
L1D PREFETCH  REQUESTED:          0  ISSUED:          0  USEFUL:          0  USELESS:          0
L1D AVERAGE MISS LATENCY: 1518.75 cycles
L1I TOTAL     ACCESS:     990208  HIT:     990208  MISS:          0
L1I LOAD      ACCESS:     990208  HIT:     990208  MISS:          0
L1I RFO       ACCESS:          0  HIT:          0  MISS:          0
L1I PREFETCH  ACCESS:          0  HIT:          0  MISS:          0
L1I WRITEBACK ACCESS:          0  HIT:          0  MISS:          0
L1I PREFETCH  REQUESTED:          0  ISSUED:          0  USEFUL:          0  USELESS:          0
L1I AVERAGE MISS LATENCY: -nan cycles
L2C TOTAL     ACCESS:    1426122  HIT:     961302  MISS:     464820
L2C LOAD      ACCESS:     114740  HIT:      25998  MISS:      88742
L2C RFO       ACCESS:     642449  HIT:     292389  MISS:     350060
L2C PREFETCH  ACCESS:      26479  HIT:        484  MISS:      25995
L2C WRITEBACK ACCESS:     642454  HIT:     642431  MISS:         23
L2C PREFETCH  REQUESTED:    2674993  ISSUED:    2674799  USEFUL:      89940  USELESS:          0
L2C AVERAGE MISS LATENCY: 2404.97 cycles
LLC TOTAL     ACCESS:    1050151  HIT:     591256  MISS:     458895
LLC LOAD      ACCESS:      71814  HIT:      56088  MISS:      15726
LLC RFO       ACCESS:     350058  HIT:       5912  MISS:     344146
LLC PREFETCH  ACCESS:     277981  HIT:     178973  MISS:      99008
LLC WRITEBACK ACCESS:     350298  HIT:     350283  MISS:         15
LLC PREFETCH  REQUESTED:          0  ISSUED:          0  USEFUL:     418372  USELESS:     339860
LLC AVERAGE MISS LATENCY: 4177.08 cycles
Major fault: 0 Minor fault: 14846

DRAM Statistics
 CHANNEL 0
 RQ ROW_BUFFER_HIT:     426037  ROW_BUFFER_MISS:    1692638
 DBUS_CONGESTED:    2002380
 WQ ROW_BUFFER_HIT:     133454  ROW_BUFFER_MISS:    1049390  FULL:          0

 AVG_CONGESTED_CYCLE: 6
