
*** ChampSim Multicore Out-of-Order Simulator ***

Warmup Instructions: 1000000
Simulation Instructions: 10000000
Number of CPUs: 4
LLC sets: 8192
LLC ways: 16
Off-chip DRAM Size: 4096 MB Channels: 1 Width: 64-bit Data Rate: 3200 MT/s

CPU 0 runs /home/virtualcse/Data-Prefetching/ChampSim/dpc3_traces/654.roms_s-1070B.champsimtrace.xz
CPU 1 runs /home/virtualcse/Data-Prefetching/ChampSim/dpc3_traces/625.x264_s-18B.champsimtrace.xz
CPU 2 runs /home/virtualcse/Data-Prefetching/ChampSim/dpc3_traces/620.omnetpp_s-141B.champsimtrace.xz
CPU 3 runs /home/virtualcse/Data-Prefetching/ChampSim/dpc3_traces/600.perlbench_s-1273B.champsimtrace.xz
Ultra pref. initializing...
Ultra pref. initialized
Ultra pref. initializing...
Ultra pref. initialized
Ultra pref. initializing...
Ultra pref. initialized
Ultra pref. initializing...
Ultra pref. initialized
Ultra pref. initializing...
Ultra pref. initialized
Ultra pref. initializing...
Ultra pref. initialized
Ultra pref. initializing...
Ultra pref. initialized
Ultra pref. initializing...
Ultra pref. initialized

Warmup complete CPU 0 instructions: 1161631 cycles: 539948 (Simulation time: 0 hr 0 min 12 sec) 
Warmup complete CPU 1 instructions: 1593482 cycles: 539948 (Simulation time: 0 hr 0 min 12 sec) 
Warmup complete CPU 2 instructions: 1000001 cycles: 539948 (Simulation time: 0 hr 0 min 12 sec) 
Warmup complete CPU 3 instructions: 1397504 cycles: 539947 (Simulation time: 0 hr 0 min 12 sec) 

Heartbeat CPU 1 instructions: 10000000 cycles: 4666189 heartbeat IPC: 2.14308 cumulative IPC: 2.03733 (Simulation time: 0 hr 0 min 50 sec) 
Finished CPU 1 instructions: 10000002 cycles: 4941713 cumulative IPC: 2.02359 (Simulation time: 0 hr 0 min 57 sec) 
Heartbeat CPU 3 instructions: 10000000 cycles: 5697502 heartbeat IPC: 1.75516 cumulative IPC: 1.66794 (Simulation time: 0 hr 0 min 58 sec) 
Finished CPU 3 instructions: 10000000 cycles: 6009285 cumulative IPC: 1.66409 (Simulation time: 0 hr 1 min 6 sec) 
Heartbeat CPU 1 instructions: 20000001 cycles: 9793777 heartbeat IPC: 1.95023 cumulative IPC: 1.98907 (Simulation time: 0 hr 1 min 34 sec) 
Heartbeat CPU 0 instructions: 10000002 cycles: 10624428 heartbeat IPC: 0.941227 cumulative IPC: 0.876433 (Simulation time: 0 hr 1 min 41 sec) 
Finished CPU 0 instructions: 10000001 cycles: 11451725 cumulative IPC: 0.873231 (Simulation time: 0 hr 1 min 53 sec) 
Heartbeat CPU 3 instructions: 20000000 cycles: 12135526 heartbeat IPC: 1.55327 cumulative IPC: 1.60427 (Simulation time: 0 hr 1 min 54 sec) 
Heartbeat CPU 1 instructions: 30000003 cycles: 14792907 heartbeat IPC: 2.00035 cumulative IPC: 1.99303 (Simulation time: 0 hr 2 min 20 sec) 
Heartbeat CPU 3 instructions: 30000002 cycles: 17164507 heartbeat IPC: 1.98847 cumulative IPC: 1.7205 (Simulation time: 0 hr 2 min 44 sec) 
Heartbeat CPU 0 instructions: 20000001 cycles: 19269992 heartbeat IPC: 1.15666 cumulative IPC: 1.00578 (Simulation time: 0 hr 3 min 7 sec) 
Heartbeat CPU 1 instructions: 40000001 cycles: 19677229 heartbeat IPC: 2.04737 cumulative IPC: 2.0069 (Simulation time: 0 hr 3 min 11 sec) 
Heartbeat CPU 3 instructions: 40000002 cycles: 23255998 heartbeat IPC: 1.64163 cumulative IPC: 1.69935 (Simulation time: 0 hr 3 min 47 sec) 
Heartbeat CPU 1 instructions: 50000002 cycles: 24448640 heartbeat IPC: 2.09582 cumulative IPC: 2.02464 (Simulation time: 0 hr 3 min 59 sec) 
Heartbeat CPU 0 instructions: 30000001 cycles: 28551186 heartbeat IPC: 1.07745 cumulative IPC: 1.02953 (Simulation time: 0 hr 4 min 33 sec) 
Heartbeat CPU 3 instructions: 50000001 cycles: 29268645 heartbeat IPC: 1.66316 cumulative IPC: 1.69178 (Simulation time: 0 hr 4 min 39 sec) 
Heartbeat CPU 1 instructions: 60000000 cycles: 29271600 heartbeat IPC: 2.07342 cumulative IPC: 2.03283 (Simulation time: 0 hr 4 min 39 sec) 
Heartbeat CPU 1 instructions: 70000001 cycles: 34195544 heartbeat IPC: 2.03089 cumulative IPC: 2.03255 (Simulation time: 0 hr 5 min 27 sec) 
Heartbeat CPU 3 instructions: 60000001 cycles: 34653828 heartbeat IPC: 1.85695 cumulative IPC: 1.71785 (Simulation time: 0 hr 5 min 32 sec) 
Heartbeat CPU 2 instructions: 10000000 cycles: 34861262 heartbeat IPC: 0.286851 cumulative IPC: 0.262228 (Simulation time: 0 hr 5 min 34 sec) 
Heartbeat CPU 1 instructions: 80000003 cycles: 39141405 heartbeat IPC: 2.02189 cumulative IPC: 2.03118 (Simulation time: 0 hr 6 min 12 sec) 
Finished CPU 2 instructions: 10000000 cycles: 38667434 cumulative IPC: 0.258616 (Simulation time: 0 hr 6 min 13 sec) 

CPU 0 Branch Prediction Accuracy: 99.8886% MPKI: 0.0708092 Average ROB Occupancy at Mispredict: 346.863

CPU 1 Branch Prediction Accuracy: 97.5699% MPKI: 0.878882 Average ROB Occupancy at Mispredict: 236.938

CPU 2 Branch Prediction Accuracy: 96.1891% MPKI: 5.6957 Average ROB Occupancy at Mispredict: 86.6394

CPU 3 Branch Prediction Accuracy: 98.6893% MPKI: 1.61714 Average ROB Occupancy at Mispredict: 99.1703

ChampSim completed all CPUs

Total Simulation Statistics (not including warmup)

CPU 0 cumulative IPC: 0.992165 instructions: 38364463 cycles: 38667434
L1D TOTAL     ACCESS:   13203458  HIT:   12312420  MISS:     891038
L1D LOAD      ACCESS:    6894711  HIT:    6784083  MISS:     110628
L1D RFO       ACCESS:     482055  HIT:     173299  MISS:     308756
L1D PREFETCH  ACCESS:    5826692  HIT:    5355038  MISS:     471654
L1D WRITEBACK ACCESS:          0  HIT:          0  MISS:          0
L1I TOTAL     ACCESS:    2066215  HIT:    2066201  MISS:         14
L1I LOAD      ACCESS:    2066215  HIT:    2066201  MISS:         14
L1I RFO       ACCESS:          0  HIT:          0  MISS:          0
L1I PREFETCH  ACCESS:          0  HIT:          0  MISS:          0
L1I WRITEBACK ACCESS:          0  HIT:          0  MISS:          0
L2C TOTAL     ACCESS:    1801706  HIT:     899568  MISS:     902138
L2C LOAD      ACCESS:      22737  HIT:       3760  MISS:      18977
L2C RFO       ACCESS:     308756  HIT:          0  MISS:     308756
L2C PREFETCH  ACCESS:    1161442  HIT:     587040  MISS:     574402
L2C WRITEBACK ACCESS:     308771  HIT:     308768  MISS:          3

L1D -512>	(68,2)	(0,86)	(4,14)	(2,13)	(1,79)	(3,5)	(14,1)	(-9,1)	(88,2)	(-1,14)	(8,1)	(13,1)	(38,1)	(29,1)	(5,13)	(44,0)	
L1D -511>	(1,2)	(0,1)	(1,0)	(1,0)	(1,0)	(1,0)	(1,0)	(1,0)	(1,0)	(1,0)	(1,0)	(1,0)	(1,0)	(1,0)	(1,0)	(1,0)	
L1D -510>	(1,1)	(2,1)	(1,0)	(1,0)	(1,0)	(1,0)	(1,0)	(1,0)	(1,0)	(1,0)	(1,0)	(1,0)	(1,0)	(1,0)	(1,0)	(1,0)	
L1D -509>	(0,1)	(1,0)	(1,0)	(1,0)	(1,0)	(1,0)	(1,0)	(1,0)	(1,0)	(1,0)	(1,0)	(1,0)	(1,0)	(1,0)	(1,0)	(1,0)	
L1D -508>	(1,0)	(1,0)	(1,0)	(1,0)	(1,0)	(1,0)	(1,0)	(1,0)	(1,0)	(1,0)	(1,0)	(1,0)	(1,0)	(1,0)	(1,0)	(1,0)	
L1D -507>	(1,0)	(1,0)	(1,0)	(1,0)	(1,0)	(1,0)	(1,0)	(1,0)	(1,0)	(1,0)	(1,0)	(1,0)	(1,0)	(1,0)	(1,0)	(1,0)	
L1D -506>	(0,1)	(122,1)	(1,0)	(1,0)	(1,0)	(1,0)	(1,0)	(1,0)	(1,0)	(1,0)	(1,0)	(1,0)	(1,0)	(1,0)	(1,0)	(1,0)	
L1D -505>	(1,0)	(1,0)	(1,0)	(1,0)	(1,0)	(1,0)	(1,0)	(1,0)	(1,0)	(1,0)	(1,0)	(1,0)	(1,0)	(1,0)	(1,0)	(1,0)	
L1D -504>	(0,1)	(1,0)	(1,0)	(1,0)	(1,0)	(1,0)	(1,0)	(1,0)	(1,0)	(1,0)	(1,0)	(1,0)	(1,0)	(1,0)	(1,0)	(1,0)	
L1D -503>	(0,1)	(88,1)	(1,0)	(1,0)	(1,0)	(1,0)	(1,0)	(1,0)	(1,0)	(1,0)	(1,0)	(1,0)	(1,0)	(1,0)	(1,0)	(1,0)	
L1D -502>	(99,1)	(2,1)	(0,2)	(112,1)	(1,0)	(1,0)	(1,0)	(1,0)	(1,0)	(1,0)	(1,0)	(1,0)	(1,0)	(1,0)	(1,0)	(1,0)	
L1D -501>	(-6,1)	(342,1)	(0,1)	(4,1)	(1,0)	(1,0)	(1,0)	(1,0)	(1,0)	(1,0)	(1,0)	(1,0)	(1,0)	(1,0)	(1,0)	(1,0)	
L1D -500>	(4,1)	(0,1)	(88,1)	(1,0)	(1,0)	(1,0)	(1,0)	(1,0)	(1,0)	(1,0)	(1,0)	(1,0)	(1,0)	(1,0)	(1,0)	(1,0)	
L1D -499>	(1,1)	(1,0)	(1,0)	(1,0)	(1,0)	(1,0)	(1,0)	(1,0)	(1,0)	(1,0)	(1,0)	(1,0)	(1,0)	(1,0)	(1,0)	(1,0)	
L1D -498>	(146,1)	(88,1)	(85,4)	(2,1)	(0,1)	(1,0)	(1,0)	(1,0)	(1,0)	(1,0)	(1,0)	(1,0)	(1,0)	(1,0)	(1,0)	(1,0)	
L1D -497>	(0,1)	(1,0)	(1,0)	(1,0)	(1,0)	(1,0)	(1,0)	(1,0)	(1,0)	(1,0)	(1,0)	(1,0)	(1,0)	(1,0)	(1,0)	(1,0)	
L1D -496>	(1,1)	(0,1)	(135,1)	(1,0)	(1,0)	(1,0)	(1,0)	(1,0)	(1,0)	(1,0)	(1,0)	(1,0)	(1,0)	(1,0)	(1,0)	(1,0)	
L1D -495>	(0,2)	(146,1)	(1,1)	(364,1)	(1,0)	(1,0)	(1,0)	(1,0)	(1,0)	(1,0)	(1,0)	(1,0)	(1,0)	(1,0)	(1,0)	(1,0)	
L1D -494>	(0,2)	(112,2)	(146,1)	(1,1)	(1,0)	(1,0)	(1,0)	(1,0)	(1,0)	(1,0)	(1,0)	(1,0)	(1,0)	(1,0)	(1,0)	(1,0)	
L1D -493>	(1,1)	(48,1)	(0,1)	(1,0)	(1,0)	(1,0)	(1,0)	(1,0)	(1,0)	(1,0)	(1,0)	(1,0)	(1,0)	(1,0)	(1,0)	(1,0)	
L1D -492>	(0,2)	(1,0)	(1,0)	(1,0)	(1,0)	(1,0)	(1,0)	(1,0)	(1,0)	(1,0)	(1,0)	(1,0)	(1,0)	(1,0)	(1,0)	(1,0)	
L1D -491>	(-1,2)	(2,1)	(1,1)	(1,0)	(1,0)	(1,0)	(1,0)	(1,0)	(1,0)	(1,0)	(1,0)	(1,0)	(1,0)	(1,0)	(1,0)	(1,0)	
L1D -490>	(82,1)	(98,1)	(47,1)	(3,1)	(1,0)	(1,0)	(1,0)	(1,0)	(1,0)	(1,0)	(1,0)	(1,0)	(1,0)	(1,0)	(1,0)	(1,0)	
L1D -489>	(0,1)	(-3,1)	(-4,1)	(1,0)	(1,0)	(1,0)	(1,0)	(1,0)	(1,0)	(1,0)	(1,0)	(1,0)	(1,0)	(1,0)	(1,0)	(1,0)	
L1D -488>	(-3,1)	(0,1)	(115,1)	(99,1)	(1,0)	(1,0)	(1,0)	(1,0)	(1,0)	(1,0)	(1,0)	(1,0)	(1,0)	(1,0)	(1,0)	(1,0)	
L1D -487>	(304,1)	(0,1)	(1,0)	(1,0)	(1,0)	(1,0)	(1,0)	(1,0)	(1,0)	(1,0)	(1,0)	(1,0)	(1,0)	(1,0)	(1,0)	(1,0)	
L1D -486>	(99,1)	(1,1)	(55,1)	(18,1)	(0,1)	(79,1)	(1,0)	(1,0)	(1,0)	(1,0)	(1,0)	(1,0)	(1,0)	(1,0)	(1,0)	(1,0)	
L1D -485>	(346,1)	(1,1)	(0,2)	(1,0)	(1,0)	(1,0)	(1,0)	(1,0)	(1,0)	(1,0)	(1,0)	(1,0)	(1,0)	(1,0)	(1,0)	(1,0)	
L1D -484>	(0,1)	(70,1)	(85,3)	(10,1)	(47,1)	(1,1)	(1,0)	(1,0)	(1,0)	(1,0)	(1,0)	(1,0)	(1,0)	(1,0)	(1,0)	(1,0)	
L1D -483>	(322,1)	(1,0)	(1,0)	(1,0)	(1,0)	(1,0)	(1,0)	(1,0)	(1,0)	(1,0)	(1,0)	(1,0)	(1,0)	(1,0)	(1,0)	(1,0)	
L1D -482>	(98,1)	(38,2)	(354,1)	(-6,1)	(1,0)	(1,0)	(1,0)	(1,0)	(1,0)	(1,0)	(1,0)	(1,0)	(1,0)	(1,0)	(1,0)	(1,0)	
L1D -481>	(0,2)	(4,1)	(1,0)	(1,0)	(1,0)	(1,0)	(1,0)	(1,0)	(1,0)	(1,0)	(1,0)	(1,0)	(1,0)	(1,0)	(1,0)	(1,0)	
L1D -480>	(99,2)	(3,1)	(34,1)	(1,0)	(1,0)	(1,0)	(1,0)	(1,0)	(1,0)	(1,0)	(1,0)	(1,0)	(1,0)	(1,0)	(1,0)	(1,0)	
L1D -479>	(146,1)	(17,1)	(0,1)	(-1,1)	(1,0)	(1,0)	(1,0)	(1,0)	(1,0)	(1,0)	(1,0)	(1,0)	(1,0)	(1,0)	(1,0)	(1,0)	
L1D -478>	(34,1)	(95,1)	(37,1)	(1,0)	(1,0)	(1,0)	(1,0)	(1,0)	(1,0)	(1,0)	(1,0)	(1,0)	(1,0)	(1,0)	(1,0)	(1,0)	
L1D -477>	(1,0)	(1,0)	(1,0)	(1,0)	(1,0)	(1,0)	(1,0)	(1,0)	(1,0)	(1,0)	(1,0)	(1,0)	(1,0)	(1,0)	(1,0)	(1,0)	
L1D -476>	(91,1)	(3,1)	(-2,1)	(0,1)	(1,0)	(1,0)	(1,0)	(1,0)	(1,0)	(1,0)	(1,0)	(1,0)	(1,0)	(1,0)	(1,0)	(1,0)	
L1D -475>	(-5,1)	(0,1)	(4,1)	(1,0)	(1,0)	(1,0)	(1,0)	(1,0)	(1,0)	(1,0)	(1,0)	(1,0)	(1,0)	(1,0)	(1,0)	(1,0)	
L1D -474>	(-1,1)	(0,1)	(1,0)	(1,0)	(1,0)	(1,0)	(1,0)	(1,0)	(1,0)	(1,0)	(1,0)	(1,0)	(1,0)	(1,0)	(1,0)	(1,0)	
L1D -473>	(-1,1)	(0,1)	(4,1)	(52,1)	(1,0)	(1,0)	(1,0)	(1,0)	(1,0)	(1,0)	(1,0)	(1,0)	(1,0)	(1,0)	(1,0)	(1,0)	
L1D -472>	(0,2)	(4,1)	(1,0)	(1,0)	(1,0)	(1,0)	(1,0)	(1,0)	(1,0)	(1,0)	(1,0)	(1,0)	(1,0)	(1,0)	(1,0)	(1,0)	
L1D -471>	(1,2)	(-1,1)	(0,1)	(262,1)	(1,0)	(1,0)	(1,0)	(1,0)	(1,0)	(1,0)	(1,0)	(1,0)	(1,0)	(1,0)	(1,0)	(1,0)	
L1D -470>	(45,1)	(0,2)	(124,1)	(34,1)	(121,1)	(2,1)	(370,1)	(1,1)	(-3,1)	(1,0)	(1,0)	(1,0)	(1,0)	(1,0)	(1,0)	(1,0)	
L1D -469>	(350,1)	(23,1)	(1,0)	(1,0)	(1,0)	(1,0)	(1,0)	(1,0)	(1,0)	(1,0)	(1,0)	(1,0)	(1,0)	(1,0)	(1,0)	(1,0)	
L1D -468>	(20,1)	(0,1)	(69,1)	(88,1)	(103,1)	(1,0)	(1,0)	(1,0)	(1,0)	(1,0)	(1,0)	(1,0)	(1,0)	(1,0)	(1,0)	(1,0)	
L1D -467>	(0,1)	(1,0)	(1,0)	(1,0)	(1,0)	(1,0)	(1,0)	(1,0)	(1,0)	(1,0)	(1,0)	(1,0)	(1,0)	(1,0)	(1,0)	(1,0)	
L1D -466>	(490,1)	(4,1)	(1,0)	(1,0)	(1,0)	(1,0)	(1,0)	(1,0)	(1,0)	(1,0)	(1,0)	(1,0)	(1,0)	(1,0)	(1,0)	(1,0)	
L1D -465>	(386,1)	(352,1)	(1,1)	(1,0)	(1,0)	(1,0)	(1,0)	(1,0)	(1,0)	(1,0)	(1,0)	(1,0)	(1,0)	(1,0)	(1,0)	(1,0)	
L1D -464>	(-1,1)	(0,3)	(2,1)	(1,1)	(1,0)	(1,0)	(1,0)	(1,0)	(1,0)	(1,0)	(1,0)	(1,0)	(1,0)	(1,0)	(1,0)	(1,0)	
L1D -463>	(1,2)	(17,1)	(1,0)	(1,0)	(1,0)	(1,0)	(1,0)	(1,0)	(1,0)	(1,0)	(1,0)	(1,0)	(1,0)	(1,0)	(1,0)	(1,0)	
L1D -462>	(69,1)	(218,1)	(89,1)	(1,1)	(4,1)	(1,0)	(1,0)	(1,0)	(1,0)	(1,0)	(1,0)	(1,0)	(1,0)	(1,0)	(1,0)	(1,0)	
L1D -461>	(17,1)	(1,1)	(430,1)	(1,0)	(1,0)	(1,0)	(1,0)	(1,0)	(1,0)	(1,0)	(1,0)	(1,0)	(1,0)	(1,0)	(1,0)	(1,0)	
L1D -460>	(1,1)	(0,1)	(34,1)	(382,1)	(1,0)	(1,0)	(1,0)	(1,0)	(1,0)	(1,0)	(1,0)	(1,0)	(1,0)	(1,0)	(1,0)	(1,0)	
L1D -459>	(0,2)	(4,1)	(1,2)	(146,1)	(1,0)	(1,0)	(1,0)	(1,0)	(1,0)	(1,0)	(1,0)	(1,0)	(1,0)	(1,0)	(1,0)	(1,0)	
L1D -458>	(456,2)	(91,1)	(450,1)	(331,1)	(-3,4)	(0,4)	(-6,1)	(1,0)	(1,0)	(1,0)	(1,0)	(1,0)	(1,0)	(1,0)	(1,0)	(1,0)	
L1D -457>	(276,1)	(437,3)	(1,0)	(1,0)	(1,0)	(1,0)	(1,0)	(1,0)	(1,0)	(1,0)	(1,0)	(1,0)	(1,0)	(1,0)	(1,0)	(1,0)	
L1D -456>	(1,4)	(0,1)	(66,1)	(89,1)	(376,1)	(1,0)	(1,0)	(1,0)	(1,0)	(1,0)	(1,0)	(1,0)	(1,0)	(1,0)	(1,0)	(1,0)	
L1D -455>	(0,1)	(54,1)	(68,11)	(1,0)	(1,0)	(1,0)	(1,0)	(1,0)	(1,0)	(1,0)	(1,0)	(1,0)	(1,0)	(1,0)	(1,0)	(1,0)	
L1D -454>	(0,33)	(1,22)	(108,1)	(79,1)	(50,2)	(327,3)	(87,1)	(57,2)	(436,10)	(428,1)	(456,2)	(1,0)	(1,0)	(1,0)	(1,0)	(1,0)	
L1D -453>	(0,3)	(-1,1)	(17,1)	(455,2)	(1,0)	(1,0)	(1,0)	(1,0)	(1,0)	(1,0)	(1,0)	(1,0)	(1,0)	(1,0)	(1,0)	(1,0)	
L1D -452>	(0,8)	(1,4)	(83,1)	(426,1)	(-1,2)	(124,1)	(454,23)	(1,0)	(1,0)	(1,0)	(1,0)	(1,0)	(1,0)	(1,0)	(1,0)	(1,0)	
L1D -451>	(2,2)	(-12,1)	(70,1)	(1,1)	(0,1)	(5,1)	(88,1)	(1,0)	(1,0)	(1,0)	(1,0)	(1,0)	(1,0)	(1,0)	(1,0)	(1,0)	
L1D -450>	(97,1)	(366,1)	(0,7)	(38,1)	(1,2)	(1,0)	(1,0)	(1,0)	(1,0)	(1,0)	(1,0)	(1,0)	(1,0)	(1,0)	(1,0)	(1,0)	
L1D -449>	(68,109)	(88,70)	(0,94)	(1,4)	(176,3)	(-1,6)	(352,1)	(4,1)	(264,1)	(386,1)	(5,1)	(1,0)	(1,0)	(1,0)	(1,0)	(1,0)	
L1D -448>	(68,6)	(1,4)	(0,4)	(106,1)	(57,1)	(69,1)	(450,3)	(424,2)	(438,1)	(1,0)	(1,0)	(1,0)	(1,0)	(1,0)	(1,0)	(1,0)	
L1D -447>	(-1,1)	(1,3)	(146,1)	(0,2)	(88,2)	(71,1)	(433,1)	(1,0)	(1,0)	(1,0)	(1,0)	(1,0)	(1,0)	(1,0)	(1,0)	(1,0)	
L1D -446>	(1,10)	(77,3)	(0,3)	(449,1)	(278,1)	(4,1)	(88,1)	(422,2)	(108,1)	(1,0)	(1,0)	(1,0)	(1,0)	(1,0)	(1,0)	(1,0)	
L1D -445>	(0,3)	(68,1)	(88,3)	(1,3)	(458,1)	(204,1)	(23,1)	(2,1)	(-10,1)	(1,0)	(1,0)	(1,0)	(1,0)	(1,0)	(1,0)	(1,0)	
L1D -444>	(0,9)	(1,18)	(88,4)	(2,1)	(71,1)	(69,2)	(272,1)	(446,4)	(426,1)	(17,1)	(1,0)	(1,0)	(1,0)	(1,0)	(1,0)	(1,0)	
L1D -443>	(0,20)	(1,48)	(396,1)	(88,8)	(1,0)	(1,0)	(1,0)	(1,0)	(1,0)	(1,0)	(1,0)	(1,0)	(1,0)	(1,0)	(1,0)	(1,0)	
L1D -442>	(1,78)	(0,7)	(424,0)	(88,9)	(2,4)	(1,0)	(1,0)	(1,0)	(1,0)	(1,0)	(1,0)	(1,0)	(1,0)	(1,0)	(1,0)	(1,0)	
L1D -441>	(1,28)	(0,30)	(88,71)	(264,0)	(176,0)	(352,0)	(440,0)	(-1,1)	(60,0)	(1,0)	(1,0)	(1,0)	(1,0)	(1,0)	(1,0)	(1,0)	
L1D -440>	(0,87)	(88,56)	(2,0)	(1,1)	(-1,0)	(1,0)	(1,0)	(1,0)	(1,0)	(1,0)	(1,0)	(1,0)	(1,0)	(1,0)	(1,0)	(1,0)	
L1D -439>	(0,73)	(1,11)	(87,8)	(88,116)	(-1,2)	(35,1)	(9,0)	(1,0)	(1,0)	(1,0)	(1,0)	(1,0)	(1,0)	(1,0)	(1,0)	(1,0)	
L1D -438>	(4,2)	(87,2)	(0,3)	(350,1)	(88,1)	(14,1)	(61,2)	(440,1)	(34,1)	(1,1)	(1,0)	(1,0)	(1,0)	(1,0)	(1,0)	(1,0)	
L1D -437>	(5,1)	(0,7)	(394,1)	(88,2)	(-8,1)	(-2,2)	(29,2)	(439,21)	(423,3)	(1,0)	(1,0)	(1,0)	(1,0)	(1,0)	(1,0)	(1,0)	
L1D -436>	(-1,1)	(73,1)	(88,1)	(1,1)	(63,3)	(0,1)	(107,1)	(69,1)	(1,0)	(1,0)	(1,0)	(1,0)	(1,0)	(1,0)	(1,0)	(1,0)	
L1D -435>	(1,2)	(190,1)	(146,1)	(88,1)	(0,2)	(-6,1)	(410,1)	(23,1)	(435,17)	(1,0)	(1,0)	(1,0)	(1,0)	(1,0)	(1,0)	(1,0)	
L1D -434>	(1,2)	(0,6)	(-1,1)	(88,1)	(398,1)	(5,2)	(-11,1)	(101,1)	(69,1)	(432,7)	(1,0)	(1,0)	(1,0)	(1,0)	(1,0)	(1,0)	
L1D -433>	(5,1)	(0,3)	(88,2)	(328,1)	(433,31)	(1,0)	(1,0)	(1,0)	(1,0)	(1,0)	(1,0)	(1,0)	(1,0)	(1,0)	(1,0)	(1,0)	
L1D -432>	(3,2)	(88,3)	(1,3)	(10,1)	(0,6)	(364,1)	(91,1)	(61,1)	(52,1)	(-20,1)	(2,2)	(-10,1)	(26,1)	(430,8)	(1,0)	(1,0)	
L1D -431>	(433,1)	(23,1)	(88,4)	(17,1)	(0,5)	(479,1)	(1,1)	(47,2)	(92,1)	(429,4)	(431,30)	(1,0)	(1,0)	(1,0)	(1,0)	(1,0)	
L1D -430>	(0,7)	(169,1)	(88,1)	(418,1)	(26,1)	(1,1)	(69,1)	(-2,1)	(286,1)	(428,6)	(32,1)	(1,0)	(1,0)	(1,0)	(1,0)	(1,0)	
L1D -429>	(-29,1)	(1,2)	(56,1)	(0,1)	(238,1)	(431,2)	(88,1)	(29,1)	(411,1)	(426,1)	(427,4)	(429,38)	(1,0)	(1,0)	(1,0)	(1,0)	
L1D -428>	(412,1)	(88,1)	(408,1)	(0,8)	(4,1)	(61,3)	(471,81)	(360,1)	(250,1)	(2,1)	(1,1)	(89,1)	(426,3)	(416,2)	(1,0)	(1,0)	
L1D -427>	(28,124)	(47,1)	(0,9)	(88,1)	(1,4)	(2,2)	(-9,1)	(56,1)	(427,1)	(5,2)	(425,4)	(439,17)	(1,0)	(1,0)	(1,0)	(1,0)	
L1D -426>	(1,45)	(27,56)	(4,9)	(424,4)	(57,1)	(-2,1)	(0,7)	(420,1)	(69,1)	(17,1)	(54,2)	(5,1)	(40,4)	(3,1)	(-47,1)	(406,1)	
L1D -425>	(1,2)	(0,5)	(412,1)	(2,1)	(-1,1)	(91,1)	(423,4)	(425,5)	(1,0)	(1,0)	(1,0)	(1,0)	(1,0)	(1,0)	(1,0)	(1,0)	
L1D -424>	(406,1)	(0,3)	(53,1)	(428,1)	(-1,1)	(412,1)	(20,1)	(422,4)	(1,1)	(1,0)	(1,0)	(1,0)	(1,0)	(1,0)	(1,0)	(1,0)	
L1D -423>	(1,1)	(0,9)	(406,1)	(-10,2)	(382,1)	(32,1)	(421,4)	(88,1)	(17,1)	(441,28)	(-2,1)	(1,0)	(1,0)	(1,0)	(1,0)	(1,0)	
L1D -422>	(2,59)	(34,2)	(37,1)	(28,1)	(421,1)	(0,3)	(4,1)	(410,2)	(418,1)	(419,1)	(420,5)	(-79,1)	(1,0)	(1,0)	(1,0)	(1,0)	
L1D -421>	(1,3)	(422,1)	(419,3)	(421,30)	(0,14)	(2,1)	(88,1)	(1,0)	(1,0)	(1,0)	(1,0)	(1,0)	(1,0)	(1,0)	(1,0)	(1,0)	
L1D -420>	(0,6)	(421,4)	(402,2)	(394,1)	(420,2)	(388,1)	(53,1)	(-4,1)	(383,1)	(418,4)	(248,1)	(88,2)	(1,0)	(1,0)	(1,0)	(1,0)	
L1D -419>	(1,3)	(11,2)	(88,1)	(419,5)	(-1,1)	(26,1)	(56,1)	(420,1)	(416,1)	(417,4)	(0,2)	(1,0)	(1,0)	(1,0)	(1,0)	(1,0)	
L1D -418>	(45,1)	(0,3)	(-1,1)	(34,1)	(418,8)	(376,1)	(306,1)	(46,1)	(1,4)	(392,1)	(419,3)	(3,1)	(326,1)	(416,3)	(160,1)	(94,1)	
L1D -417>	(-10,101)	(417,1)	(415,0)	(31,1)	(1,0)	(0,6)	(441,16)	(1,0)	(1,0)	(1,0)	(1,0)	(1,0)	(1,0)	(1,0)	(1,0)	(1,0)	
L1D -416>	(0,2)	(415,1)	(1,3)	(53,1)	(416,6)	(5,1)	(404,1)	(58,1)	(-20,1)	(88,2)	(417,2)	(324,1)	(414,3)	(-46,1)	(441,1)	(1,0)	
L1D -415>	(1,3)	(0,5)	(88,1)	(-1,2)	(36,1)	(415,5)	(362,1)	(38,1)	(445,1)	(413,4)	(62,1)	(2,1)	(414,1)	(1,0)	(1,0)	(1,0)	
L1D -414>	(0,4)	(1,5)	(414,4)	(69,1)	(61,2)	(238,1)	(17,1)	(34,1)	(11,1)	(2,1)	(5,1)	(412,4)	(100,1)	(53,1)	(402,2)	(380,1)	
L1D -413>	(1,9)	(2,5)	(0,4)	(413,4)	(-7,1)	(412,1)	(-1,1)	(153,1)	(414,2)	(11,3)	(411,4)	(1,0)	(1,0)	(1,0)	(1,0)	(1,0)	
L1D -412>	(61,1)	(0,6)	(1,1)	(310,1)	(412,8)	(-1,1)	(413,2)	(394,4)	(5,1)	(410,4)	(1,0)	(1,0)	(1,0)	(1,0)	(1,0)	(1,0)	
L1D -411>	(0,117)	(160,1)	(-7,12)	(408,0)	(1,0)	(1,0)	(1,0)	(1,0)	(1,0)	(1,0)	(1,0)	(1,0)	(1,0)	(1,0)	(1,0)	(1,0)	
L1D -410>	(53,1)	(410,8)	(0,5)	(1,1)	(146,1)	(5,1)	(429,1)	(409,1)	(420,1)	(103,1)	(3,1)	(-10,1)	(408,4)	(-1,1)	(1,0)	(1,0)	
L1D -409>	(0,4)	(7,2)	(15,1)	(409,4)	(366,1)	(-1,1)	(1,1)	(88,1)	(407,4)	(410,1)	(1,0)	(1,0)	(1,0)	(1,0)	(1,0)	(1,0)	
L1D -408>	(390,2)	(88,2)	(0,6)	(8,1)	(409,4)	(1,6)	(344,1)	(37,1)	(2,1)	(38,1)	(-1,1)	(408,1)	(406,4)	(1,0)	(1,0)	(1,0)	
L1D -407>	(1,8)	(56,2)	(407,2)	(388,1)	(454,1)	(0,4)	(-7,1)	(14,1)	(2,2)	(-13,1)	(405,4)	(1,0)	(1,0)	(1,0)	(1,0)	(1,0)	
L1D -406>	(-1,1)	(394,8)	(1,5)	(458,1)	(88,1)	(0,9)	(397,1)	(2,1)	(406,5)	(407,1)	(10,1)	(336,1)	(268,1)	(404,4)	(420,1)	(1,0)	
L1D -405>	(1,4)	(0,6)	(405,2)	(385,1)	(2,3)	(406,2)	(-1,1)	(17,1)	(5,1)	(403,4)	(1,0)	(1,0)	(1,0)	(1,0)	(1,0)	(1,0)	
L1D -404>	(-1,1)	(405,3)	(-28,1)	(8,1)	(392,4)	(0,5)	(382,2)	(-10,1)	(2,2)	(1,2)	(402,4)	(404,1)	(1,0)	(1,0)	(1,0)	(1,0)	
L1D -403>	(1,2)	(-1,1)	(0,3)	(88,3)	(15,1)	(27,1)	(368,1)	(403,1)	(61,1)	(401,4)	(409,1)	(-10,1)	(1,0)	(1,0)	(1,0)	(1,0)	
L1D -402>	(0,7)	(6,1)	(-70,1)	(68,1)	(88,3)	(-56,1)	(402,3)	(-2,1)	(1,4)	(-42,6)	(396,1)	(-1,2)	(390,2)	(382,1)	(4,1)	(400,4)	
L1D -401>	(1,3)	(0,4)	(88,1)	(401,5)	(-10,3)	(403,1)	(11,1)	(2,2)	(399,4)	(56,1)	(1,0)	(1,0)	(1,0)	(1,0)	(1,0)	(1,0)	
L1D -400>	(1,4)	(400,4)	(0,7)	(179,1)	(392,1)	(-1,3)	(401,3)	(374,1)	(3,2)	(406,1)	(-86,1)	(260,1)	(399,1)	(398,4)	(1,0)	(1,0)	
L1D -399>	(1,2)	(5,2)	(399,2)	(0,5)	(400,1)	(17,1)	(-27,30)	(16,1)	(396,1)	(397,4)	(-1,1)	(1,0)	(1,0)	(1,0)	(1,0)	(1,0)	
L1D -398>	(396,4)	(-84,1)	(502,1)	(1,3)	(386,1)	(406,1)	(0,6)	(32,1)	(17,1)	(398,4)	(85,1)	(388,1)	(395,1)	(146,1)	(-8,1)	(182,1)	
L1D -397>	(398,2)	(1,1)	(0,1)	(397,3)	(2,2)	(250,1)	(26,1)	(395,4)	(-43,1)	(1,0)	(1,0)	(1,0)	(1,0)	(1,0)	(1,0)	(1,0)	
L1D -396>	(1,4)	(0,4)	(88,2)	(28,1)	(396,6)	(397,3)	(-58,1)	(-1,1)	(2,1)	(5,1)	(424,1)	(394,4)	(1,0)	(1,0)	(1,0)	(1,0)	
L1D -395>	(1,3)	(83,1)	(395,4)	(2,1)	(0,2)	(17,1)	(27,1)	(5,1)	(393,4)	(-1,1)	(-61,1)	(1,0)	(1,0)	(1,0)	(1,0)	(1,0)	
L1D -394>	(37,1)	(376,3)	(0,6)	(71,1)	(88,1)	(-1,2)	(1,4)	(395,1)	(3,1)	(394,4)	(68,1)	(413,1)	(392,4)	(-78,1)	(1,0)	(1,0)	
L1D -393>	(1,1)	(0,3)	(422,1)	(393,3)	(5,1)	(2,3)	(98,1)	(391,4)	(1,0)	(1,0)	(1,0)	(1,0)	(1,0)	(1,0)	(1,0)	(1,0)	
L1D -392>	(393,4)	(392,1)	(0,2)	(6,1)	(2,4)	(160,1)	(1,3)	(5,2)	(391,1)	(390,4)	(-1,1)	(380,1)	(1,0)	(1,0)	(1,0)	(1,0)	
L1D -391>	(1,1)	(29,1)	(392,2)	(391,2)	(-60,2)	(2,1)	(389,4)	(1,0)	(1,0)	(1,0)	(1,0)	(1,0)	(1,0)	(1,0)	(1,0)	(1,0)	
L1D -390>	(-2,4)	(389,3)	(24,1)	(391,1)	(390,6)	(392,1)	(0,6)	(1,1)	(258,1)	(-1,1)	(-23,3)	(191,3)	(-10,1)	(324,1)	(388,4)	(1,0)	
L1D -389>	(88,1)	(0,4)	(-4,1)	(390,2)	(414,1)	(-69,1)	(1,2)	(387,4)	(-1,1)	(1,0)	(1,0)	(1,0)	(1,0)	(1,0)	(1,0)	(1,0)	
L1D -388>	(1,2)	(0,4)	(126,1)	(380,2)	(374,1)	(388,1)	(389,3)	(376,1)	(352,1)	(386,4)	(1,0)	(1,0)	(1,0)	(1,0)	(1,0)	(1,0)	
L1D -387>	(1,3)	(2,1)	(114,21)	(387,2)	(152,1)	(-10,1)	(56,2)	(-41,1)	(386,1)	(385,4)	(414,1)	(0,1)	(1,0)	(1,0)	(1,0)	(1,0)	
L1D -386>	(386,111)	(0,6)	(-31,9)	(387,0)	(-1,0)	(383,0)	(384,0)	(1,0)	(1,0)	(1,0)	(1,0)	(1,0)	(1,0)	(1,0)	(1,0)	(1,0)	
L1D -385>	(-6,1)	(17,1)	(386,1)	(385,2)	(-2,1)	(0,6)	(1,2)	(150,1)	(383,3)	(2,1)	(1,0)	(1,0)	(1,0)	(1,0)	(1,0)	(1,0)	
L1D -384>	(1,2)	(372,2)	(2,1)	(406,1)	(403,2)	(68,1)	(358,1)	(351,1)	(382,4)	(410,1)	(385,1)	(1,0)	(1,0)	(1,0)	(1,0)	(1,0)	
L1D -383>	(0,4)	(90,2)	(383,3)	(382,1)	(-1,2)	(381,4)	(1,0)	(1,0)	(1,0)	(1,0)	(1,0)	(1,0)	(1,0)	(1,0)	(1,0)	(1,0)	
L1D -382>	(394,1)	(388,2)	(0,4)	(382,2)	(32,1)	(146,1)	(380,4)	(-94,1)	(1,0)	(1,0)	(1,0)	(1,0)	(1,0)	(1,0)	(1,0)	(1,0)	
L1D -381>	(0,6)	(114,110)	(152,7)	(357,1)	(126,1)	(82,2)	(29,1)	(44,1)	(379,4)	(85,1)	(414,1)	(382,1)	(1,0)	(1,0)	(1,0)	(1,0)	
L1D -380>	(380,4)	(-1,1)	(381,2)	(0,3)	(6,2)	(-38,1)	(1,3)	(342,1)	(24,1)	(378,4)	(218,1)	(-4,1)	(1,0)	(1,0)	(1,0)	(1,0)	
L1D -379>	(379,3)	(0,3)	(-5,1)	(1,1)	(186,1)	(-21,1)	(2,1)	(-14,1)	(377,4)	(1,0)	(1,0)	(1,0)	(1,0)	(1,0)	(1,0)	(1,0)	
L1D -378>	(3,1)	(-1,2)	(0,7)	(160,1)	(-98,1)	(128,1)	(378,2)	(376,4)	(1,1)	(1,0)	(1,0)	(1,0)	(1,0)	(1,0)	(1,0)	(1,0)	
L1D -377>	(1,2)	(0,3)	(5,1)	(366,1)	(344,1)	(110,4)	(377,4)	(-7,1)	(375,4)	(1,0)	(1,0)	(1,0)	(1,0)	(1,0)	(1,0)	(1,0)	
L1D -376>	(0,5)	(-6,1)	(1,3)	(377,3)	(364,1)	(382,1)	(374,4)	(1,0)	(1,0)	(1,0)	(1,0)	(1,0)	(1,0)	(1,0)	(1,0)	(1,0)	
L1D -375>	(2,1)	(1,5)	(87,1)	(0,6)	(375,3)	(373,4)	(448,1)	(1,0)	(1,0)	(1,0)	(1,0)	(1,0)	(1,0)	(1,0)	(1,0)	(1,0)	
L1D -374>	(6,2)	(1,5)	(18,1)	(30,1)	(50,2)	(2,1)	(0,2)	(372,4)	(1,0)	(1,0)	(1,0)	(1,0)	(1,0)	(1,0)	(1,0)	(1,0)	
L1D -373>	(1,2)	(0,4)	(3,1)	(102,1)	(6,1)	(373,1)	(4,1)	(371,4)	(1,0)	(1,0)	(1,0)	(1,0)	(1,0)	(1,0)	(1,0)	(1,0)	
L1D -372>	(3,1)	(0,4)	(2,3)	(-50,1)	(20,1)	(124,1)	(5,3)	(1,2)	(126,1)	(482,1)	(370,4)	(1,0)	(1,0)	(1,0)	(1,0)	(1,0)	
L1D -371>	(72,10)	(1,5)	(371,5)	(-1,1)	(0,6)	(127,1)	(60,1)	(369,4)	(195,1)	(56,1)	(416,1)	(1,0)	(1,0)	(1,0)	(1,0)	(1,0)	
L1D -370>	(6,1)	(370,4)	(1,2)	(234,1)	(0,2)	(8,1)	(192,1)	(3,1)	(368,4)	(5,1)	(2,1)	(1,0)	(1,0)	(1,0)	(1,0)	(1,0)	
L1D -369>	(39,1)	(4,1)	(1,1)	(2,3)	(0,1)	(-7,1)	(367,4)	(412,1)	(-1,1)	(1,0)	(1,0)	(1,0)	(1,0)	(1,0)	(1,0)	(1,0)	
L1D -368>	(0,4)	(368,3)	(-3,1)	(-1,1)	(1,2)	(98,1)	(366,4)	(5,1)	(1,0)	(1,0)	(1,0)	(1,0)	(1,0)	(1,0)	(1,0)	(1,0)	
L1D -367>	(1,5)	(6,1)	(24,1)	(62,1)	(-7,1)	(17,2)	(2,3)	(368,1)	(365,4)	(108,1)	(1,0)	(1,0)	(1,0)	(1,0)	(1,0)	(1,0)	
L1D -366>	(6,1)	(0,5)	(88,1)	(385,1)	(-18,1)	(392,1)	(320,1)	(1,3)	(4,1)	(370,1)	(364,4)	(-4,1)	(418,1)	(1,0)	(1,0)	(1,0)	
L1D -365>	(60,14)	(-1,2)	(4,1)	(0,4)	(366,2)	(1,1)	(365,2)	(2,3)	(363,4)	(188,1)	(1,0)	(1,0)	(1,0)	(1,0)	(1,0)	(1,0)	
L1D -364>	(364,4)	(0,4)	(50,1)	(1,4)	(362,4)	(78,1)	(1,0)	(1,0)	(1,0)	(1,0)	(1,0)	(1,0)	(1,0)	(1,0)	(1,0)	(1,0)	
L1D -363>	(1,8)	(128,1)	(18,1)	(3,1)	(-7,1)	(0,4)	(104,1)	(88,1)	(364,1)	(378,1)	(361,4)	(363,1)	(1,0)	(1,0)	(1,0)	(1,0)	
L1D -362>	(-1,1)	(1,6)	(0,6)	(85,1)	(-35,1)	(230,1)	(400,1)	(362,7)	(78,2)	(360,4)	(1,0)	(1,0)	(1,0)	(1,0)	(1,0)	(1,0)	
L1D -361>	(0,56)	(362,2)	(1,5)	(88,21)	(361,1)	(107,1)	(-1,5)	(91,1)	(-87,5)	(62,2)	(2,1)	(82,1)	(359,4)	(59,1)	(1,0)	(1,0)	
L1D -360>	(0,4)	(88,2)	(1,7)	(354,1)	(3,3)	(363,1)	(358,4)	(-2,1)	(-1,2)	(4,1)	(130,1)	(1,0)	(1,0)	(1,0)	(1,0)	(1,0)	
L1D -359>	(60,78)	(1,3)	(0,3)	(6,1)	(359,1)	(3,0)	(357,2)	(1,0)	(1,0)	(1,0)	(1,0)	(1,0)	(1,0)	(1,0)	(1,0)	(1,0)	
L1D -358>	(358,3)	(1,7)	(-54,1)	(234,1)	(60,4)	(0,3)	(20,1)	(176,1)	(3,1)	(6,1)	(24,1)	(356,4)	(88,1)	(1,0)	(1,0)	(1,0)	
L1D -357>	(-26,1)	(1,9)	(357,1)	(88,1)	(6,1)	(0,6)	(5,3)	(4,1)	(355,4)	(352,1)	(1,0)	(1,0)	(1,0)	(1,0)	(1,0)	(1,0)	
L1D -356>	(0,9)	(1,16)	(88,5)	(302,1)	(357,1)	(192,1)	(24,1)	(87,1)	(-18,1)	(50,1)	(354,4)	(344,1)	(-98,1)	(1,0)	(1,0)	(1,0)	
L1D -355>	(1,40)	(56,3)	(0,20)	(88,12)	(232,1)	(-13,1)	(2,4)	(359,1)	(355,3)	(356,1)	(353,5)	(-1,2)	(41,1)	(-14,1)	(1,0)	(1,0)	
L1D -354>	(1,93)	(0,6)	(88,4)	(302,0)	(278,0)	(3,0)	(352,0)	(1,0)	(1,0)	(1,0)	(1,0)	(1,0)	(1,0)	(1,0)	(1,0)	(1,0)	
L1D -353>	(0,101)	(1,51)	(88,116)	(3,1)	(-1,4)	(6,0)	(352,0)	(1,0)	(1,0)	(1,0)	(1,0)	(1,0)	(1,0)	(1,0)	(1,0)	(1,0)	
L1D -352>	(0,107)	(88,101)	(162,0)	(-1,3)	(6,0)	(1,0)	(1,0)	(1,0)	(1,0)	(1,0)	(1,0)	(1,0)	(1,0)	(1,0)	(1,0)	(1,0)	
L1D -351>	(0,44)	(1,6)	(88,80)	(352,0)	(-1,1)	(87,1)	(349,1)	(69,0)	(2,0)	(1,0)	(1,0)	(1,0)	(1,0)	(1,0)	(1,0)	(1,0)	
L1D -350>	(322,82)	(-3,0)	(349,0)	(1,0)	(1,0)	(1,0)	(1,0)	(1,0)	(1,0)	(1,0)	(1,0)	(1,0)	(1,0)	(1,0)	(1,0)	(1,0)	
L1D -349>	(5,1)	(0,5)	(24,1)	(81,1)	(-108,1)	(350,1)	(349,1)	(89,2)	(-37,1)	(56,1)	(347,4)	(-1,1)	(-3,1)	(300,1)	(1,0)	(1,0)	
L1D -348>	(0,8)	(349,1)	(2,1)	(1,3)	(320,61)	(348,2)	(26,2)	(6,1)	(-74,1)	(3,1)	(-1,2)	(346,4)	(33,1)	(1,0)	(1,0)	(1,0)	
L1D -347>	(2,2)	(1,2)	(5,2)	(319,60)	(109,1)	(347,3)	(242,1)	(4,1)	(84,1)	(0,2)	(-1,1)	(64,1)	(345,4)	(63,1)	(1,0)	(1,0)	
L1D -346>	(341,22)	(4,104)	(0,12)	(298,0)	(346,0)	(24,0)	(1,0)	(1,0)	(1,0)	(1,0)	(1,0)	(1,0)	(1,0)	(1,0)	(1,0)	(1,0)	
L1D -345>	(2,3)	(1,3)	(0,4)	(4,1)	(345,2)	(88,1)	(222,1)	(24,1)	(47,1)	(23,3)	(5,1)	(343,4)	(344,1)	(1,0)	(1,0)	(1,0)	
L1D -344>	(0,7)	(88,1)	(26,1)	(347,1)	(4,1)	(442,1)	(34,1)	(290,1)	(17,2)	(-2,2)	(342,4)	(344,1)	(1,1)	(1,0)	(1,0)	(1,0)	
L1D -343>	(6,0)	(338,13)	(-3,3)	(162,99)	(343,0)	(24,0)	(1,0)	(1,0)	(1,0)	(1,0)	(1,0)	(1,0)	(1,0)	(1,0)	(1,0)	(1,0)	
L1D -342>	(-4,28)	(1,7)	(-1,2)	(0,8)	(340,4)	(337,24)	(20,1)	(342,6)	(343,1)	(-20,1)	(-12,1)	(3,1)	(143,1)	(266,1)	(112,1)	(339,1)	
L1D -341>	(0,16)	(341,4)	(5,15)	(4,28)	(346,0)	(358,96)	(48,0)	(1,0)	(1,0)	(1,0)	(1,0)	(1,0)	(1,0)	(1,0)	(1,0)	(1,0)	
L1D -340>	(4,2)	(186,1)	(0,11)	(1,4)	(-24,1)	(91,1)	(142,1)	(338,4)	(340,1)	(3,1)	(1,0)	(1,0)	(1,0)	(1,0)	(1,0)	(1,0)	
L1D -339>	(1,4)	(99,1)	(3,1)	(0,4)	(4,2)	(-20,1)	(-1,1)	(2,1)	(114,1)	(336,1)	(337,4)	(-13,1)	(1,0)	(1,0)	(1,0)	(1,0)	
L1D -338>	(1,15)	(-3,69)	(338,2)	(-1,1)	(0,3)	(294,0)	(28,0)	(343,9)	(32,0)	(339,1)	(52,0)	(73,0)	(2,0)	(346,0)	(64,0)	(336,1)	
L1D -337>	(342,77)	(104,4)	(117,107)	(-4,31)	(167,12)	(114,84)	(335,1)	(18,0)	(0,1)	(1,0)	(1,0)	(1,0)	(1,0)	(1,0)	(1,0)	(1,0)	
L1D -336>	(341,7)	(-5,1)	(4,2)	(0,8)	(220,2)	(337,2)	(1,5)	(38,2)	(336,1)	(50,2)	(282,1)	(360,1)	(20,1)	(348,1)	(334,4)	(1,0)	
L1D -335>	(0,5)	(24,1)	(3,2)	(18,1)	(162,1)	(42,1)	(92,1)	(336,1)	(4,3)	(254,1)	(148,1)	(404,1)	(333,4)	(1,1)	(-1,1)	(6,1)	
L1D -334>	(0,5)	(1,2)	(337,1)	(4,1)	(-2,1)	(75,1)	(252,1)	(132,1)	(2,1)	(332,4)	(328,1)	(334,1)	(339,1)	(1,0)	(1,0)	(1,0)	
L1D -333>	(0,2)	(23,1)	(1,5)	(-36,1)	(24,1)	(-1,2)	(54,1)	(92,1)	(-61,2)	(124,1)	(294,1)	(2,3)	(114,2)	(333,1)	(61,1)	(331,4)	
L1D -332>	(333,4)	(332,1)	(-1,1)	(50,1)	(1,3)	(-18,1)	(337,1)	(-4,1)	(330,4)	(0,2)	(290,1)	(1,0)	(1,0)	(1,0)	(1,0)	(1,0)	
L1D -331>	(1,7)	(331,8)	(325,2)	(-1,2)	(4,4)	(0,4)	(29,2)	(-137,2)	(490,1)	(-70,1)	(2,1)	(329,4)	(252,1)	(1,0)	(1,0)	(1,0)	
L1D -330>	(4,4)	(0,9)	(32,1)	(330,2)	(1,3)	(5,3)	(44,2)	(328,4)	(8,1)	(20,1)	(1,0)	(1,0)	(1,0)	(1,0)	(1,0)	(1,0)	
L1D -329>	(329,1)	(-1,1)	(0,10)	(-2,1)	(52,1)	(24,2)	(1,1)	(327,4)	(324,1)	(145,1)	(1,0)	(1,0)	(1,0)	(1,0)	(1,0)	(1,0)	
L1D -328>	(15,69)	(22,54)	(328,1)	(54,0)	(331,0)	(4,1)	(0,1)	(1,0)	(1,0)	(1,0)	(1,0)	(1,0)	(1,0)	(1,0)	(1,0)	(1,0)	
L1D -327>	(24,1)	(0,88)	(325,4)	(29,1)	(47,1)	(6,1)	(1,0)	(1,0)	(1,0)	(1,0)	(1,0)	(1,0)	(1,0)	(1,0)	(1,0)	(1,0)	
L1D -326>	(2,1)	(1,3)	(0,4)	(329,1)	(146,1)	(4,2)	(328,1)	(-138,1)	(324,4)	(1,0)	(1,0)	(1,0)	(1,0)	(1,0)	(1,0)	(1,0)	
L1D -325>	(0,9)	(139,1)	(-7,1)	(86,1)	(6,2)	(1,1)	(47,1)	(325,1)	(75,1)	(-2,1)	(356,1)	(20,1)	(-1,1)	(3,1)	(24,1)	(323,4)	
L1D -324>	(4,2)	(0,10)	(1,4)	(93,1)	(88,1)	(-46,1)	(-146,1)	(6,1)	(26,1)	(322,5)	(111,1)	(404,1)	(38,1)	(1,0)	(1,0)	(1,0)	
L1D -323>	(6,3)	(0,9)	(88,1)	(3,3)	(-1,1)	(1,2)	(29,1)	(321,4)	(4,3)	(1,0)	(1,0)	(1,0)	(1,0)	(1,0)	(1,0)	(1,0)	
L1D -322>	(323,1)	(86,0)	(0,0)	(350,0)	(34,0)	(322,0)	(24,0)	(-36,0)	(-9,0)	(1,0)	(-2,0)	(-53,87)	(240,0)	(1,0)	(1,0)	(1,0)	
L1D -321>	(16,118)	(1,42)	(0,10)	(319,4)	(317,1)	(47,2)	(336,1)	(2,1)	(-2,1)	(348,53)	(24,2)	(3,1)	(-5,1)	(40,1)	(112,1)	(53,1)	
L1D -320>	(348,117)	(16,76)	(1,33)	(32,0)	(347,0)	(332,0)	(0,1)	(1,0)	(1,0)	(1,0)	(1,0)	(1,0)	(1,0)	(1,0)	(1,0)	(1,0)	
L1D -319>	(347,104)	(6,0)	(23,0)	(0,0)	(1,0)	(1,0)	(1,0)	(1,0)	(1,0)	(1,0)	(1,0)	(1,0)	(1,0)	(1,0)	(1,0)	(1,0)	
L1D -318>	(318,1)	(4,3)	(-20,1)	(321,1)	(0,6)	(5,2)	(52,1)	(1,2)	(316,5)	(374,1)	(442,1)	(-4,1)	(-6,1)	(40,1)	(16,1)	(323,1)	
L1D -317>	(23,2)	(5,1)	(0,11)	(24,1)	(1,2)	(6,2)	(316,1)	(317,1)	(354,1)	(-1,1)	(315,4)	(2,1)	(1,0)	(1,0)	(1,0)	(1,0)	
L1D -316>	(0,6)	(5,1)	(1,2)	(19,1)	(319,1)	(4,1)	(-1,1)	(146,1)	(2,1)	(314,4)	(17,1)	(1,0)	(1,0)	(1,0)	(1,0)	(1,0)	
L1D -315>	(3,3)	(6,2)	(4,2)	(315,1)	(18,1)	(1,2)	(-2,1)	(0,6)	(317,1)	(319,1)	(324,1)	(47,2)	(26,2)	(312,1)	(313,4)	(-20,1)	
L1D -314>	(1,8)	(0,8)	(88,2)	(182,1)	(4,1)	(61,2)	(312,3)	(20,1)	(5,13)	(1,0)	(1,0)	(1,0)	(1,0)	(1,0)	(1,0)	(1,0)	
L1D -313>	(0,9)	(313,93)	(6,3)	(1,4)	(24,2)	(-20,1)	(311,4)	(41,2)	(-13,1)	(-1,1)	(1,0)	(1,0)	(1,0)	(1,0)	(1,0)	(1,0)	
L1D -312>	(19,1)	(18,1)	(1,7)	(315,1)	(0,5)	(4,5)	(310,4)	(-4,1)	(35,1)	(44,1)	(264,1)	(1,0)	(1,0)	(1,0)	(1,0)	(1,0)	
L1D -311>	(0,6)	(309,4)	(24,1)	(6,2)	(310,1)	(89,65)	(311,3)	(1,2)	(1,0)	(1,0)	(1,0)	(1,0)	(1,0)	(1,0)	(1,0)	(1,0)	
L1D -310>	(313,1)	(4,2)	(60,1)	(1,5)	(89,1)	(0,2)	(6,1)	(310,2)	(-20,1)	(308,4)	(304,10)	(3,3)	(1,0)	(1,0)	(1,0)	(1,0)	
L1D -309>	(6,4)	(5,1)	(1,2)	(3,4)	(24,2)	(0,7)	(-13,2)	(309,124)	(29,1)	(-1,2)	(-9,1)	(307,4)	(311,1)	(1,0)	(1,0)	(1,0)	
L1D -308>	(4,1)	(0,7)	(-9,1)	(1,3)	(6,1)	(309,1)	(308,102)	(-1,2)	(311,1)	(306,4)	(2,2)	(142,1)	(128,1)	(-12,1)	(20,1)	(248,1)	
L1D -307>	(309,1)	(-5,1)	(0,2)	(305,4)	(307,106)	(26,1)	(264,1)	(1,0)	(1,0)	(1,0)	(1,0)	(1,0)	(1,0)	(1,0)	(1,0)	(1,0)	
L1D -306>	(0,106)	(27,0)	(306,15)	(304,0)	(1,0)	(1,0)	(1,0)	(1,0)	(1,0)	(1,0)	(1,0)	(1,0)	(1,0)	(1,0)	(1,0)	(1,0)	
L1D -305>	(6,5)	(83,1)	(0,14)	(1,5)	(321,5)	(24,5)	(26,1)	(43,3)	(305,96)	(-53,5)	(303,4)	(311,2)	(1,0)	(1,0)	(1,0)	(1,0)	
L1D -304>	(19,1)	(0,12)	(14,1)	(-24,1)	(1,2)	(-2,1)	(20,5)	(302,5)	(4,3)	(304,39)	(58,1)	(7,1)	(146,1)	(6,1)	(5,1)	(-71,1)	
L1D -303>	(-20,2)	(3,2)	(0,11)	(24,2)	(299,1)	(301,5)	(329,1)	(-81,1)	(-128,1)	(1,2)	(-1,1)	(234,1)	(6,2)	(35,1)	(1,0)	(1,0)	
L1D -302>	(1,6)	(0,10)	(274,1)	(300,6)	(-26,1)	(4,1)	(354,1)	(19,1)	(295,1)	(146,2)	(110,1)	(307,1)	(-6,1)	(1,0)	(1,0)	(1,0)	
L1D -301>	(2,3)	(6,6)	(0,11)	(-4,10)	(303,1)	(276,1)	(294,1)	(296,1)	(5,1)	(-13,1)	(301,1)	(1,3)	(-20,1)	(3,1)	(298,1)	(299,4)	
L1D -300>	(3,1)	(303,1)	(100,1)	(-38,1)	(1,3)	(0,9)	(301,1)	(207,1)	(305,2)	(6,4)	(-6,1)	(298,3)	(56,1)	(2,1)	(20,1)	(386,1)	
L1D -299>	(321,71)	(-3,5)	(88,2)	(14,4)	(297,4)	(0,12)	(-5,6)	(35,1)	(6,2)	(2,6)	(258,1)	(1,4)	(-110,1)	(76,1)	(388,1)	(17,1)	
L1D -298>	(0,13)	(10,1)	(296,7)	(301,4)	(297,1)	(299,3)	(110,1)	(2,1)	(146,1)	(152,1)	(260,1)	(1,2)	(378,1)	(19,1)	(-80,1)	(1,0)	
L1D -297>	(26,7)	(-20,2)	(0,12)	(24,7)	(297,8)	(299,1)	(6,5)	(225,1)	(295,9)	(264,1)	(2,2)	(296,1)	(49,1)	(1,0)	(1,0)	(1,0)	
L1D -296>	(-114,1)	(-2,1)	(146,1)	(1,4)	(24,1)	(216,1)	(0,15)	(4,2)	(-9,2)	(299,1)	(19,4)	(75,12)	(296,12)	(294,6)	(6,1)	(297,2)	
L1D -295>	(0,3)	(297,2)	(272,1)	(6,9)	(19,2)	(317,2)	(-136,1)	(167,1)	(295,65)	(293,5)	(170,23)	(1,2)	(77,1)	(1,0)	(1,0)	(1,0)	
L1D -294>	(292,5)	(-50,1)	(291,38)	(-26,1)	(0,13)	(20,1)	(14,12)	(442,1)	(390,1)	(1,5)	(26,2)	(4,1)	(294,50)	(67,35)	(76,30)	(66,1)	
L1D -293>	(6,8)	(0,15)	(-20,3)	(24,8)	(26,2)	(1,5)	(-1,1)	(293,52)	(291,6)	(3,1)	(297,1)	(17,1)	(-6,1)	(315,1)	(5,1)	(35,1)	
L1D -292>	(0,13)	(6,6)	(19,7)	(20,3)	(1,7)	(-1,2)	(295,2)	(76,21)	(292,43)	(69,31)	(67,17)	(290,11)	(293,1)	(297,1)	(-106,1)	(2,3)	
L1D -291>	(294,73)	(291,14)	(0,7)	(307,1)	(1,1)	(276,1)	(20,3)	(19,2)	(2,1)	(293,2)	(295,2)	(288,1)	(289,4)	(24,1)	(301,1)	(131,1)	
L1D -290>	(2,7)	(0,11)	(288,3)	(-11,5)	(70,28)	(290,58)	(309,1)	(291,1)	(20,3)	(-7,1)	(19,4)	(130,1)	(146,1)	(211,1)	(6,3)	(-52,1)	
L1D -289>	(2,1)	(6,2)	(0,8)	(291,1)	(289,11)	(27,1)	(1,2)	(290,1)	(24,3)	(-20,1)	(211,10)	(-1,1)	(287,4)	(248,1)	(41,2)	(1,0)	
L1D -288>	(286,4)	(120,1)	(0,14)	(105,125)	(6,2)	(20,1)	(-68,1)	(288,2)	(68,1)	(1,3)	(-20,2)	(184,1)	(306,1)	(211,49)	(40,1)	(5,1)	
L1D -287>	(285,4)	(286,1)	(1,2)	(105,37)	(0,21)	(24,4)	(287,1)	(2,3)	(18,1)	(-14,1)	(6,4)	(422,1)	(26,1)	(262,1)	(211,64)	(291,3)	
L1D -286>	(-94,1)	(2,4)	(289,3)	(0,14)	(298,1)	(20,8)	(19,1)	(105,1)	(215,1)	(24,1)	(301,1)	(211,65)	(-1,1)	(1,2)	(284,4)	(23,1)	
L1D -285>	(6,7)	(3,10)	(0,15)	(242,1)	(24,3)	(19,1)	(285,4)	(37,7)	(-20,1)	(1,3)	(211,15)	(283,4)	(-64,1)	(13,1)	(262,1)	(289,1)	
L1D -284>	(0,12)	(-20,2)	(4,1)	(105,20)	(20,7)	(-160,1)	(1,4)	(-14,1)	(289,2)	(14,1)	(6,2)	(-1,2)	(19,4)	(282,5)	(211,18)	(5,1)	
L1D -283>	(281,4)	(12,2)	(4,1)	(19,2)	(105,36)	(238,1)	(0,16)	(285,3)	(334,1)	(-1,2)	(-34,1)	(6,1)	(272,1)	(24,1)	(2,2)	(211,24)	
L1D -282>	(262,1)	(14,2)	(2,1)	(19,13)	(20,5)	(105,2)	(280,5)	(0,9)	(7,1)	(1,6)	(285,1)	(283,1)	(211,11)	(287,3)	(113,1)	(188,1)	
L1D -281>	(1,2)	(6,6)	(0,13)	(105,33)	(24,7)	(4,1)	(26,1)	(-1,1)	(285,1)	(283,1)	(76,1)	(211,5)	(-20,2)	(29,1)	(279,4)	(-2,1)	
L1D -280>	(0,33)	(1,3)	(-20,4)	(238,1)	(105,1)	(304,1)	(283,3)	(20,2)	(6,1)	(2,2)	(4,1)	(12,2)	(250,1)	(-2,1)	(272,1)	(278,6)	
L1D -279>	(26,3)	(-20,5)	(2,3)	(24,9)	(0,20)	(1,5)	(277,4)	(8,23)	(105,28)	(7,2)	(-9,1)	(281,2)	(283,4)	(18,1)	(275,2)	(5,1)	
L1D -278>	(16,3)	(281,4)	(272,2)	(2,3)	(0,26)	(19,13)	(276,4)	(-6,2)	(1,1)	(283,3)	(20,7)	(-20,4)	(280,1)	(12,2)	(-174,1)	(314,1)	
L1D -277>	(0,84)	(277,4)	(273,35)	(240,1)	(-20,0)	(248,0)	(258,0)	(13,0)	(1,0)	(1,0)	(1,0)	(1,0)	(1,0)	(1,0)	(1,0)	(1,0)	
L1D -276>	(2,11)	(274,9)	(14,3)	(0,43)	(6,5)	(20,13)	(4,3)	(279,6)	(19,17)	(8,6)	(1,3)	(105,10)	(276,2)	(296,1)	(-20,1)	(253,1)	
L1D -275>	(275,14)	(1,4)	(26,6)	(2,3)	(0,28)	(8,5)	(-20,2)	(273,4)	(19,3)	(105,21)	(6,5)	(279,2)	(265,1)	(24,4)	(56,1)	(88,1)	
L1D -274>	(211,41)	(2,17)	(20,2)	(279,4)	(8,17)	(19,1)	(-20,2)	(105,2)	(0,15)	(4,1)	(264,1)	(-6,2)	(-18,1)	(272,6)	(-120,1)	(276,1)	
L1D -273>	(277,108)	(-20,1)	(172,1)	(6,3)	(411,2)	(211,24)	(105,2)	(412,4)	(0,8)	(271,2)	(263,1)	(273,3)	(420,3)	(1,3)	(17,1)	(9,0)	
L1D -272>	(211,78)	(0,52)	(295,1)	(50,1)	(56,1)	(270,9)	(105,1)	(88,1)	(4,2)	(-1,1)	(273,1)	(394,1)	(302,1)	(20,3)	(275,3)	(1,2)	
L1D -271>	(5,2)	(0,21)	(-20,2)	(1,6)	(267,1)	(26,1)	(105,1)	(275,2)	(269,4)	(2,1)	(19,1)	(250,1)	(271,3)	(-1,1)	(211,110)	(6,1)	
L1D -270>	(19,3)	(268,4)	(1,4)	(211,93)	(0,44)	(4,1)	(40,1)	(162,1)	(275,2)	(208,1)	(-20,1)	(222,1)	(20,7)	(241,0)	(270,1)	(88,0)	
L1D -269>	(26,6)	(267,2)	(3,119)	(2,1)	(6,2)	(211,63)	(0,9)	(1,6)	(-6,1)	(-20,2)	(29,1)	(24,2)	(268,5)	(4,2)	(13,12)	(266,1)	
L1D -268>	(10,1)	(-26,2)	(5,7)	(20,28)	(0,42)	(6,3)	(2,20)	(-12,3)	(19,48)	(292,2)	(-20,6)	(1,9)	(266,4)	(273,2)	(88,3)	(271,2)	
L1D -267>	(1,21)	(420,73)	(412,63)	(269,3)	(211,24)	(24,9)	(411,26)	(29,3)	(265,4)	(88,12)	(0,20)	(267,2)	(263,6)	(2,2)	(271,4)	(416,1)	
L1D -266>	(277,1)	(0,5)	(1,82)	(270,0)	(2,0)	(46,0)	(88,9)	(259,0)	(6,0)	(4,1)	(19,3)	(-21,0)	(269,0)	(20,0)	(-1,0)	(-20,1)	
L1D -265>	(0,54)	(262,1)	(1,31)	(264,0)	(88,73)	(-1,1)	(2,0)	(263,0)	(224,0)	(1,0)	(1,0)	(1,0)	(1,0)	(1,0)	(1,0)	(1,0)	
L1D -264>	(0,106)	(87,0)	(352,0)	(88,84)	(-1,3)	(20,0)	(37,0)	(24,0)	(42,0)	(40,0)	(19,0)	(4,0)	(1,0)	(1,0)	(1,0)	(1,0)	
L1D -263>	(29,0)	(0,62)	(86,0)	(24,2)	(261,1)	(1,6)	(88,86)	(87,1)	(26,1)	(263,0)	(-14,0)	(41,0)	(-64,0)	(-1,2)	(-42,1)	(-20,0)	
L1D -262>	(-20,3)	(-18,2)	(20,25)	(2,6)	(0,20)	(260,4)	(38,29)	(37,4)	(267,1)	(14,2)	(19,5)	(88,2)	(262,3)	(263,1)	(322,1)	(6,4)	
L1D -261>	(24,8)	(26,37)	(6,6)	(0,87)	(1,7)	(259,4)	(-20,1)	(10,9)	(261,7)	(-1,1)	(260,1)	(252,1)	(30,1)	(38,1)	(-6,1)	(224,1)	
L1D -260>	(0,55)	(2,7)	(-26,2)	(1,8)	(4,1)	(-6,1)	(88,1)	(265,2)	(296,1)	(272,1)	(20,7)	(-73,1)	(6,2)	(-18,1)	(258,4)	(-2,1)	
L1D -259>	(3,12)	(1,13)	(-1,2)	(0,96)	(261,5)	(220,8)	(23,2)	(-3,2)	(257,4)	(13,2)	(259,6)	(88,2)	(24,1)	(218,2)	(10,5)	(2,2)	
L1D -258>	(219,1)	(62,123)	(1,34)	(20,2)	(76,1)	(110,0)	(0,3)	(-20,1)	(277,0)	(255,0)	(256,0)	(61,0)	(1,0)	(1,0)	(1,0)	(1,0)	
L1D -257>	(0,68)	(98,99)	(19,1)	(99,6)	(261,0)	(60,121)	(250,0)	(240,0)	(255,0)	(24,3)	(257,0)	(61,18)	(270,0)	(1,1)	(266,0)	(1,0)	
L1D -256>	(19,1)	(1,103)	(-20,1)	(249,1)	(20,5)	(259,0)	(278,0)	(0,4)	(82,0)	(256,0)	(251,18)	(88,0)	(255,1)	(239,0)	(1,0)	(1,0)	
L1D -255>	(-20,1)	(84,113)	(0,81)	(250,47)	(262,1)	(266,1)	(26,4)	(20,1)	(259,2)	(42,0)	(253,0)	(257,0)	(29,0)	(-1,0)	(234,0)	(1,0)	
L1D -254>	(2,25)	(-12,11)	(257,6)	(-20,9)	(0,37)	(252,6)	(19,10)	(1,1)	(20,46)	(121,24)	(-34,3)	(255,1)	(70,8)	(4,2)	(88,1)	(28,1)	
L1D -253>	(251,4)	(-1,1)	(253,12)	(1,10)	(6,3)	(29,1)	(0,25)	(17,1)	(3,3)	(7,1)	(-13,1)	(-20,6)	(-18,1)	(-22,1)	(252,2)	(255,1)	
L1D -252>	(2,17)	(-20,10)	(211,27)	(20,4)	(-26,2)	(250,4)	(257,1)	(19,10)	(-6,1)	(285,1)	(252,2)	(218,1)	(254,1)	(0,9)	(242,1)	(1,4)	
L1D -251>	(218,0)	(13,0)	(3,1)	(-31,0)	(1,70)	(0,0)	(-20,0)	(42,0)	(-26,0)	(4,0)	(1,0)	(1,0)	(1,0)	(1,0)	(1,0)	(1,0)	
L1D -250>	(254,63)	(84,84)	(-18,1)	(252,2)	(70,70)	(121,11)	(250,3)	(4,4)	(248,4)	(257,3)	(47,7)	(2,15)	(19,6)	(0,10)	(-20,12)	(113,7)	
L1D -249>	(1,21)	(24,23)	(249,6)	(26,3)	(247,4)	(43,2)	(-20,3)	(19,7)	(251,3)	(-36,13)	(0,17)	(6,3)	(3,1)	(-40,1)	(-48,3)	(5,1)	
L1D -248>	(4,2)	(2,13)	(211,88)	(3,3)	(0,10)	(40,3)	(16,1)	(20,37)	(-20,6)	(248,3)	(-37,4)	(-1,1)	(245,1)	(246,5)	(19,8)	(218,1)	
L1D -247>	(26,40)	(247,24)	(-20,3)	(245,4)	(0,53)	(1,12)	(249,5)	(8,1)	(226,9)	(24,6)	(50,1)	(-14,1)	(243,2)	(146,1)	(22,2)	(240,2)	
L1D -246>	(246,7)	(225,3)	(-20,3)	(20,11)	(19,39)	(4,5)	(-18,3)	(39,2)	(0,105)	(247,1)	(244,7)	(1,9)	(14,1)	(2,4)	(26,2)	(-1,1)	
L1D -245>	(250,98)	(-6,16)	(2,0)	(245,2)	(243,1)	(13,23)	(0,3)	(-9,0)	(24,2)	(1,0)	(211,25)	(247,2)	(26,0)	(41,0)	(3,0)	(246,0)	
L1D -244>	(20,5)	(0,114)	(242,4)	(37,2)	(-20,5)	(41,2)	(19,1)	(-3,2)	(272,1)	(245,2)	(-155,1)	(371,1)	(1,7)	(234,1)	(-90,1)	(244,1)	
L1D -243>	(3,101)	(0,34)	(245,1)	(24,7)	(19,2)	(13,11)	(242,1)	(241,1)	(-26,1)	(243,3)	(-20,1)	(29,1)	(4,2)	(2,1)	(236,4)	(204,1)	
L1D -242>	(47,104)	(43,1)	(41,2)	(2,2)	(40,0)	(0,14)	(20,4)	(184,0)	(6,0)	(1,1)	(240,1)	(-20,1)	(-6,0)	(244,0)	(38,2)	(39,2)	
L1D -241>	(24,24)	(241,20)	(26,42)	(1,5)	(239,4)	(0,22)	(232,5)	(243,1)	(19,2)	(145,1)	(2,1)	(-20,7)	(248,1)	(-6,1)	(6,1)	(3,3)	
L1D -240>	(238,4)	(24,2)	(0,110)	(2,3)	(20,21)	(19,12)	(241,6)	(-11,6)	(239,2)	(-20,2)	(1,1)	(6,1)	(243,1)	(4,4)	(-88,1)	(247,1)	
L1D -239>	(239,55)	(-20,15)	(244,11)	(1,4)	(0,25)	(237,4)	(241,8)	(29,4)	(2,2)	(5,1)	(280,1)	(240,2)	(19,4)	(238,1)	(28,1)	(24,2)	
L1D -238>	(236,5)	(239,1)	(241,3)	(-26,1)	(0,20)	(2,8)	(238,6)	(12,35)	(20,14)	(231,1)	(277,1)	(-126,1)	(208,1)	(19,2)	(5,1)	(-20,5)	
L1D -237>	(-9,5)	(239,4)	(0,32)	(235,4)	(47,7)	(-20,8)	(6,4)	(237,1)	(228,1)	(7,2)	(-26,1)	(-6,1)	(84,1)	(29,4)	(4,1)	(198,1)	
L1D -236>	(2,5)	(0,16)	(236,3)	(234,4)	(19,4)	(1,2)	(-54,3)	(290,1)	(-20,6)	(6,1)	(326,1)	(241,3)	(164,1)	(166,2)	(264,2)	(20,6)	
L1D -235>	(235,18)	(24,8)	(2,16)	(1,5)	(0,18)	(19,2)	(6,7)	(-20,6)	(29,3)	(233,4)	(374,2)	(196,4)	(-1,2)	(242,1)	(-26,2)	(-22,1)	
L1D -234>	(232,3)	(0,19)	(-18,5)	(-20,7)	(-6,4)	(1,8)	(35,2)	(20,3)	(275,1)	(19,6)	(2,3)	(258,1)	(-118,1)	(288,2)	(14,1)	(-5,1)	
L1D -233>	(17,68)	(6,3)	(231,4)	(24,10)	(229,3)	(233,22)	(234,1)	(0,8)	(1,8)	(240,2)	(-20,3)	(238,2)	(3,4)	(227,8)	(-48,1)	(235,1)	
L1D -232>	(0,20)	(233,18)	(1,7)	(202,4)	(2,5)	(19,10)	(29,3)	(230,7)	(110,2)	(6,3)	(-14,2)	(224,13)	(-20,12)	(20,10)	(112,4)	(4,1)	
L1D -231>	(229,3)	(202,2)	(231,4)	(0,26)	(29,1)	(2,3)	(7,3)	(233,7)	(-22,1)	(19,1)	(263,1)	(88,2)	(1,6)	(6,2)	(235,1)	(328,1)	
L1D -230>	(2,10)	(0,12)	(228,5)	(-20,1)	(-6,2)	(223,4)	(4,3)	(288,1)	(1,6)	(20,12)	(-18,3)	(88,1)	(-14,1)	(229,3)	(-29,1)	(259,2)	
L1D -229>	(0,88)	(374,8)	(24,2)	(-9,27)	(110,3)	(3,1)	(227,1)	(7,4)	(231,2)	(2,1)	(26,2)	(29,0)	(222,0)	(236,0)	(1,1)	(6,1)	
L1D -228>	(32,7)	(-27,11)	(234,3)	(-16,2)	(226,4)	(0,15)	(229,2)	(-20,18)	(-18,5)	(256,1)	(52,1)	(224,3)	(269,1)	(1,2)	(140,1)	(233,2)	
L1D -227>	(227,31)	(0,17)	(-20,9)	(225,4)	(1,14)	(188,20)	(2,2)	(110,14)	(47,2)	(229,6)	(254,1)	(88,2)	(24,1)	(5,1)	(19,2)	(-36,1)	
L1D -226>	(2,5)	(6,5)	(-26,3)	(0,17)	(-3,5)	(1,6)	(224,4)	(220,1)	(88,2)	(292,1)	(246,1)	(28,1)	(187,5)	(20,2)	(286,1)	(-20,1)	
L1D -225>	(225,66)	(24,19)	(26,3)	(29,4)	(1,7)	(-20,26)	(223,4)	(0,16)	(208,1)	(17,1)	(218,1)	(3,2)	(228,1)	(412,1)	(19,3)	(-6,1)	
L1D -224>	(20,17)	(0,18)	(-20,7)	(-4,8)	(19,21)	(224,17)	(2,6)	(4,2)	(6,2)	(-18,15)	(225,9)	(222,4)	(-26,6)	(1,4)	(18,2)	(109,1)	
L1D -223>	(0,20)	(225,4)	(2,10)	(223,21)	(40,1)	(186,1)	(7,9)	(-114,1)	(-20,17)	(1,1)	(227,1)	(252,2)	(6,1)	(-1,1)	(221,4)	(36,1)	
L1D -222>	(1,8)	(2,8)	(0,18)	(220,5)	(14,2)	(222,3)	(240,1)	(-18,1)	(-20,13)	(-26,1)	(296,1)	(-248,1)	(19,1)	(28,1)	(20,9)	(6,1)	
L1D -221>	(0,36)	(1,7)	(6,7)	(221,29)	(219,4)	(29,3)	(2,45)	(-20,1)	(332,1)	(324,1)	(168,1)	(33,1)	(228,6)	(214,4)	(322,1)	(3,4)	
L1D -220>	(218,4)	(20,3)	(0,32)	(40,5)	(-26,5)	(-18,2)	(1,9)	(41,4)	(39,9)	(-20,24)	(253,1)	(220,1)	(6,1)	(227,1)	(3,2)	(280,1)	
L1D -219>	(6,3)	(217,4)	(219,78)	(224,8)	(0,41)	(19,5)	(228,43)	(3,9)	(-20,25)	(29,1)	(246,2)	(-18,4)	(237,1)	(1,3)	(2,5)	(13,1)	
L1D -218>	(216,6)	(28,1)	(218,1)	(7,1)	(2,20)	(0,18)	(4,5)	(117,1)	(1,2)	(34,1)	(276,1)	(219,1)	(210,1)	(272,1)	(290,1)	(370,1)	
L1D -217>	(217,5)	(6,4)	(215,4)	(0,18)	(1,8)	(19,3)	(224,8)	(-1,3)	(29,8)	(26,12)	(246,2)	(-20,5)	(-36,1)	(88,1)	(12,1)	(3,1)	
L1D -216>	(1,9)	(223,3)	(2,12)	(0,21)	(214,6)	(196,1)	(14,3)	(20,76)	(217,3)	(-2,7)	(-12,1)	(32,1)	(216,2)	(28,1)	(-20,6)	(4,2)	
L1D -215>	(7,1)	(-4,1)	(1,5)	(5,1)	(0,89)	(2,17)	(6,5)	(222,3)	(217,3)	(-20,4)	(260,1)	(140,0)	(13,0)	(215,1)	(24,1)	(213,2)	
L1D -214>	(0,65)	(278,0)	(1,1)	(-2,0)	(221,0)	(266,0)	(-20,0)	(212,0)	(50,0)	(217,0)	(214,1)	(276,0)	(20,0)	(1,0)	(1,0)	(1,0)	
L1D -213>	(211,0)	(1,2)	(0,67)	(-20,0)	(158,0)	(215,0)	(220,0)	(18,0)	(1,0)	(1,0)	(1,0)	(1,0)	(1,0)	(1,0)	(1,0)	(1,0)	
L1D -212>	(212,2)	(-20,18)	(1,3)	(0,30)	(3,8)	(210,4)	(392,1)	(253,1)	(245,2)	(-72,2)	(6,1)	(4,3)	(219,4)	(-169,1)	(248,2)	(217,2)	
L1D -211>	(5,10)	(211,36)	(6,9)	(0,44)	(179,2)	(1,4)	(2,1)	(-2,1)	(-20,13)	(24,3)	(29,5)	(352,1)	(218,1)	(212,9)	(378,1)	(209,4)	
L1D -210>	(-24,2)	(0,29)	(216,5)	(-18,1)	(7,1)	(494,1)	(3,2)	(1,7)	(-276,1)	(-8,1)	(-12,2)	(-114,1)	(36,1)	(-26,1)	(-11,1)	(208,4)	
L1D -209>	(29,11)	(26,62)	(1,2)	(0,46)	(24,14)	(207,4)	(-32,2)	(38,1)	(209,5)	(194,1)	(208,1)	(-24,1)	(28,1)	(216,1)	(19,4)	(-116,1)	
L1D -208>	(206,4)	(0,46)	(20,4)	(19,1)	(-18,3)	(2,3)	(304,1)	(228,1)	(44,1)	(209,5)	(1,4)	(6,3)	(-1,1)	(117,1)	(208,5)	(-98,1)	
L1D -207>	(207,18)	(0,38)	(6,5)	(26,1)	(209,13)	(2,6)	(206,1)	(19,2)	(211,1)	(1,3)	(-26,1)	(196,2)	(205,4)	(208,2)	(230,1)	(-20,1)	
L1D -206>	(-3,1)	(204,2)	(206,87)	(4,9)	(-18,5)	(-26,1)	(0,15)	(3,2)	(20,3)	(14,1)	(6,3)	(-24,2)	(2,4)	(-28,6)	(-8,2)	(235,1)	
L1D -205>	(6,12)	(0,51)	(-2,1)	(198,3)	(-6,1)	(1,14)	(212,6)	(205,2)	(88,2)	(322,1)	(203,5)	(207,4)	(29,1)	(242,3)	(234,2)	(24,1)	
L1D -204>	(0,30)	(4,1)	(-11,1)	(-18,3)	(1,7)	(420,1)	(-143,1)	(-34,1)	(-190,1)	(-20,1)	(209,1)	(18,1)	(117,1)	(-125,1)	(346,1)	(202,4)	
L1D -203>	(1,7)	(203,79)	(2,6)	(0,33)	(55,44)	(-1,1)	(-20,8)	(88,1)	(402,1)	(212,4)	(25,6)	(-6,2)	(34,1)	(6,6)	(3,1)	(201,4)	
L1D -202>	(39,2)	(0,30)	(27,1)	(1,7)	(24,5)	(7,1)	(6,3)	(-36,1)	(-20,3)	(-12,1)	(248,2)	(-150,1)	(204,1)	(117,1)	(207,1)	(200,4)	
L1D -201>	(203,1)	(29,9)	(0,32)	(119,1)	(33,1)	(318,2)	(-61,1)	(-20,2)	(199,4)	(244,1)	(1,1)	(218,1)	(17,1)	(208,1)	(153,1)	(4,1)	
L1D -200>	(0,36)	(6,1)	(318,1)	(-2,5)	(2,1)	(200,3)	(-34,1)	(402,1)	(-64,1)	(1,3)	(3,2)	(198,4)	(-1,3)	(24,1)	(33,1)	(60,1)	
L1D -199>	(-3,1)	(0,73)	(1,1)	(227,1)	(200,1)	(3,0)	(4,1)	(2,2)	(199,0)	(-20,2)	(-48,0)	(197,2)	(132,0)	(318,0)	(188,0)	(7,1)	
L1D -198>	(-18,6)	(-26,3)	(0,116)	(7,2)	(188,3)	(155,3)	(1,9)	(3,1)	(-86,1)	(6,1)	(5,1)	(-214,1)	(227,4)	(196,4)	(-1,1)	(198,7)	
L1D -197>	(0,93)	(-61,5)	(3,8)	(1,2)	(-3,2)	(6,1)	(192,1)	(124,1)	(226,1)	(-50,1)	(34,0)	(199,2)	(-6,3)	(220,0)	(195,2)	(13,0)	
L1D -196>	(1,1)	(196,15)	(0,101)	(-18,2)	(67,6)	(-46,3)	(-14,2)	(204,4)	(-210,0)	(-20,2)	(225,0)	(4,0)	(424,0)	(7,0)	(194,1)	(-50,0)	
L1D -195>	(0,120)	(1,3)	(386,1)	(-1,1)	(-9,2)	(200,0)	(292,0)	(195,14)	(193,2)	(3,0)	(6,0)	(1,0)	(1,0)	(1,0)	(1,0)	(1,0)	
L1D -194>	(-26,2)	(192,5)	(193,2)	(1,4)	(0,87)	(245,1)	(246,1)	(299,1)	(254,1)	(6,1)	(196,1)	(284,1)	(306,1)	(286,1)	(-12,1)	(194,2)	
L1D -193>	(0,111)	(1,4)	(193,2)	(35,1)	(6,1)	(-1,0)	(-20,0)	(191,2)	(229,0)	(1,0)	(1,0)	(1,0)	(1,0)	(1,0)	(1,0)	(1,0)	
L1D -192>	(0,98)	(193,3)	(1,2)	(50,1)	(197,1)	(-18,1)	(4,1)	(20,62)	(140,1)	(-4,1)	(-11,0)	(117,0)	(190,2)	(12,0)	(9,3)	(1,0)	
L1D -191>	(20,37)	(422,1)	(0,57)	(152,1)	(105,7)	(9,4)	(6,2)	(193,6)	(2,7)	(188,1)	(1,5)	(29,1)	(-20,1)	(189,4)	(220,2)	(191,2)	
L1D -190>	(5,121)	(1,9)	(-8,3)	(0,19)	(105,44)	(44,2)	(188,8)	(40,2)	(102,7)	(101,3)	(146,1)	(190,1)	(162,1)	(-2,1)	(37,2)	(42,3)	
L1D -189>	(5,2)	(6,21)	(1,10)	(0,52)	(101,5)	(33,8)	(2,1)	(105,80)	(244,1)	(234,1)	(187,6)	(212,4)	(4,1)	(188,5)	(102,3)	(3,1)	
L1D -188>	(0,33)	(186,4)	(105,26)	(-6,2)	(40,10)	(1,10)	(41,4)	(37,5)	(39,2)	(38,4)	(211,2)	(195,1)	(28,2)	(-168,1)	(5,83)	(-8,3)	
L1D -187>	(187,64)	(0,83)	(2,1)	(14,1)	(-20,22)	(6,2)	(185,4)	(1,5)	(180,1)	(24,1)	(-6,1)	(20,1)	(194,1)	(88,1)	(-1,1)	(26,1)	
L1D -186>	(-6,2)	(1,5)	(190,11)	(187,5)	(24,5)	(4,1)	(105,17)	(0,122)	(5,1)	(-169,1)	(180,1)	(360,1)	(188,2)	(6,3)	(184,4)	(186,1)	
L1D -185>	(29,3)	(104,47)	(0,69)	(1,6)	(105,83)	(-1,1)	(34,3)	(33,2)	(183,4)	(180,1)	(5,1)	(44,2)	(-70,1)	(1,0)	(1,0)	(1,0)	
L1D -184>	(-44,1)	(182,1)	(-17,1)	(0,92)	(1,4)	(-70,39)	(51,20)	(20,1)	(105,2)	(-3,1)	(184,1)	(-61,0)	(-142,0)	(66,2)	(104,13)	(102,0)	
L1D -183>	(150,1)	(1,1)	(0,82)	(181,1)	(2,16)	(-3,0)	(105,1)	(183,0)	(7,0)	(88,0)	(13,0)	(6,1)	(94,34)	(104,17)	(-9,3)	(33,0)	
L1D -182>	(94,1)	(-86,1)	(-9,0)	(0,114)	(2,6)	(1,1)	(4,1)	(88,0)	(200,0)	(42,0)	(-3,1)	(163,0)	(28,0)	(180,0)	(20,0)	(146,0)	
L1D -181>	(-3,1)	(27,0)	(-5,0)	(0,94)	(104,0)	(261,0)	(7,0)	(88,0)	(153,0)	(183,1)	(186,0)	(-192,0)	(23,0)	(179,0)	(6,0)	(154,0)	
L1D -180>	(0,89)	(66,3)	(51,2)	(224,26)	(-70,1)	(-44,6)	(219,2)	(228,7)	(110,7)	(136,26)	(65,3)	(184,4)	(34,3)	(188,9)	(-16,6)	(50,3)	
L1D -179>	(-1,74)	(179,0)	(2,0)	(0,0)	(88,0)	(186,0)	(1,0)	(1,0)	(1,0)	(1,0)	(1,0)	(1,0)	(1,0)	(1,0)	(1,0)	(1,0)	
L1D -178>	(1,21)	(0,69)	(88,2)	(98,1)	(33,0)	(182,0)	(2,1)	(176,0)	(-3,0)	(180,0)	(154,0)	(147,0)	(18,0)	(1,0)	(1,0)	(1,0)	
L1D -177>	(90,0)	(-1,4)	(1,28)	(0,91)	(176,0)	(264,0)	(171,0)	(88,86)	(3,0)	(1,0)	(1,0)	(1,0)	(1,0)	(1,0)	(1,0)	(1,0)	
L1D -176>	(0,124)	(82,0)	(-177,0)	(88,61)	(-1,3)	(177,0)	(1,1)	(1,0)	(1,0)	(1,0)	(1,0)	(1,0)	(1,0)	(1,0)	(1,0)	(1,0)	
L1D -175>	(0,74)	(1,10)	(-53,1)	(171,2)	(88,86)	(-168,5)	(170,26)	(6,8)	(155,76)	(87,2)	(-1,1)	(105,0)	(3,0)	(173,0)	(136,0)	(44,0)	
L1D -174>	(50,16)	(1,7)	(28,14)	(168,76)	(0,28)	(2,0)	(4,7)	(-3,60)	(20,3)	(-5,34)	(87,8)	(418,0)	(39,0)	(343,0)	(38,0)	(42,0)	
L1D -173>	(21,0)	(-1,31)	(28,68)	(86,3)	(0,2)	(105,1)	(-68,0)	(26,0)	(40,0)	(25,0)	(24,0)	(-4,0)	(6,0)	(27,0)	(41,0)	(1,1)	
L1D -172>	(172,1)	(38,2)	(25,4)	(167,14)	(27,1)	(24,12)	(26,1)	(-11,101)	(2,2)	(0,7)	(23,3)	(41,1)	(37,2)	(42,1)	(21,17)	(40,1)	
L1D -171>	(171,105)	(177,43)	(0,1)	(4,34)	(172,4)	(167,3)	(-57,0)	(90,44)	(37,0)	(3,2)	(27,0)	(26,0)	(173,0)	(118,5)	(-4,3)	(38,0)	
L1D -170>	(33,77)	(170,5)	(-168,9)	(0,10)	(6,52)	(-4,11)	(20,1)	(-167,2)	(-30,0)	(-50,0)	(168,0)	(-11,0)	(1,0)	(438,0)	(1,0)	(1,0)	
L1D -169>	(-6,8)	(27,9)	(169,9)	(1,9)	(0,20)	(11,2)	(186,1)	(4,1)	(105,23)	(6,2)	(-1,10)	(7,3)	(167,4)	(-174,2)	(-72,3)	(10,1)	
L1D -168>	(4,1)	(-11,6)	(-20,0)	(-3,99)	(1,24)	(87,6)	(-4,1)	(343,85)	(-6,7)	(338,2)	(117,0)	(168,0)	(-240,0)	(0,2)	(1,0)	(1,0)	
L1D -167>	(105,1)	(167,10)	(86,95)	(-4,6)	(0,4)	(-6,1)	(96,0)	(5,0)	(342,0)	(169,0)	(173,0)	(137,0)	(1,0)	(1,0)	(1,0)	(1,0)	
L1D -166>	(0,5)	(280,1)	(384,1)	(2,2)	(44,0)	(167,20)	(348,0)	(165,119)	(-4,95)	(168,8)	(6,0)	(266,0)	(158,5)	(166,0)	(208,0)	(164,0)	
L1D -165>	(32,8)	(13,1)	(158,32)	(163,0)	(160,2)	(0,1)	(-8,3)	(5,0)	(159,10)	(-6,0)	(-5,0)	(165,80)	(3,0)	(1,0)	(1,0)	(1,0)	
L1D -164>	(-6,9)	(60,1)	(169,43)	(420,1)	(196,1)	(164,2)	(91,1)	(0,2)	(165,1)	(153,98)	(2,1)	(1,3)	(1,0)	(1,0)	(1,0)	(1,0)	
L1D -163>	(161,4)	(-135,2)	(162,1)	(37,9)	(39,6)	(42,6)	(41,9)	(40,17)	(163,115)	(24,6)	(6,2)	(38,13)	(21,4)	(43,2)	(28,1)	(-14,1)	
L1D -162>	(0,7)	(54,40)	(162,3)	(163,1)	(-28,2)	(-160,1)	(-172,1)	(398,1)	(2,6)	(1,2)	(85,1)	(6,1)	(160,4)	(161,1)	(-304,1)	(-1,1)	
L1D -161>	(0,82)	(-14,90)	(-10,20)	(5,1)	(1,6)	(6,2)	(128,3)	(-8,3)	(161,4)	(162,3)	(159,4)	(19,2)	(-9,1)	(24,1)	(85,1)	(1,0)	
L1D -160>	(12,11)	(2,2)	(-11,8)	(-1,1)	(161,5)	(0,7)	(158,3)	(7,3)	(178,1)	(26,1)	(163,100)	(1,3)	(-4,1)	(122,1)	(8,1)	(392,1)	
L1D -159>	(-99,121)	(-98,7)	(0,2)	(410,1)	(156,1)	(159,0)	(1,1)	(1,0)	(1,0)	(1,0)	(1,0)	(1,0)	(1,0)	(1,0)	(1,0)	(1,0)	
L1D -158>	(-46,39)	(156,4)	(-4,12)	(6,6)	(173,2)	(157,120)	(1,2)	(61,1)	(0,23)	(-10,1)	(-78,1)	(-2,2)	(128,1)	(20,1)	(2,4)	(-22,1)	
L1D -157>	(-56,99)	(3,0)	(0,0)	(157,0)	(-84,0)	(137,0)	(13,0)	(1,0)	(1,0)	(1,0)	(1,0)	(1,0)	(1,0)	(1,0)	(1,0)	(1,0)	
L1D -156>	(-14,64)	(154,3)	(155,1)	(1,1)	(0,6)	(156,3)	(-18,0)	(157,3)	(247,0)	(123,0)	(6,0)	(3,2)	(159,0)	(43,1)	(39,1)	(40,0)	
L1D -155>	(157,4)	(156,9)	(154,78)	(-14,22)	(0,0)	(12,0)	(155,0)	(1,0)	(179,0)	(148,1)	(2,0)	(1,0)	(1,0)	(1,0)	(1,0)	(1,0)	
L1D -154>	(-14,74)	(156,2)	(-25,7)	(-40,0)	(154,0)	(0,0)	(-134,0)	(155,2)	(40,0)	(23,0)	(41,0)	(24,0)	(28,0)	(1,0)	(1,0)	(1,0)	
L1D -153>	(123,1)	(1,7)	(154,79)	(156,81)	(157,24)	(12,9)	(-14,14)	(0,5)	(153,11)	(-90,1)	(-98,1)	(-1,8)	(-7,3)	(27,1)	(155,7)	(151,2)	
L1D -152>	(24,14)	(41,3)	(32,18)	(40,2)	(37,2)	(155,1)	(38,2)	(27,2)	(25,8)	(23,3)	(140,69)	(21,18)	(-7,13)	(0,3)	(26,3)	(42,2)	
L1D -151>	(0,11)	(1,4)	(-62,78)	(29,1)	(151,3)	(-7,92)	(-47,5)	(148,1)	(152,1)	(149,2)	(17,0)	(24,2)	(36,0)	(28,0)	(27,0)	(41,1)	
L1D -150>	(-2,1)	(0,66)	(150,6)	(1,5)	(151,2)	(152,1)	(-20,1)	(-47,17)	(148,2)	(-7,81)	(-5,1)	(-4,1)	(76,3)	(119,1)	(229,1)	(69,1)	
L1D -149>	(0,14)	(1,7)	(118,5)	(3,46)	(13,6)	(117,3)	(-64,24)	(-7,45)	(4,1)	(149,4)	(152,1)	(-5,1)	(147,4)	(182,1)	(150,2)	(6,1)	
L1D -148>	(140,11)	(0,26)	(-84,6)	(1,8)	(148,2)	(-7,74)	(-10,3)	(146,3)	(25,13)	(3,10)	(154,7)	(117,4)	(150,7)	(-65,99)	(-110,1)	(149,26)	
L1D -147>	(141,122)	(-66,57)	(41,1)	(-7,122)	(156,3)	(-33,29)	(145,2)	(154,1)	(0,4)	(148,2)	(17,4)	(150,1)	(147,1)	(-3,1)	(140,2)	(-145,0)	
L1D -146>	(0,76)	(-95,1)	(-120,0)	(9,9)	(2,4)	(-14,0)	(-33,2)	(146,0)	(155,0)	(1,0)	(115,0)	(114,0)	(1,0)	(1,0)	(1,0)	(1,0)	
L1D -145>	(7,3)	(12,47)	(1,9)	(-68,40)	(5,25)	(145,7)	(147,6)	(-14,20)	(9,2)	(146,6)	(144,1)	(-1,1)	(-140,1)	(0,8)	(47,1)	(143,4)	
L1D -144>	(130,104)	(145,0)	(0,6)	(-26,3)	(7,11)	(-69,0)	(1,0)	(1,0)	(1,0)	(1,0)	(1,0)	(1,0)	(1,0)	(1,0)	(1,0)	(1,0)	
L1D -143>	(6,87)	(0,60)	(-10,0)	(129,3)	(126,0)	(3,23)	(40,0)	(143,0)	(38,0)	(174,0)	(24,0)	(27,0)	(21,0)	(42,0)	(132,0)	(125,0)	
L1D -142>	(25,4)	(0,65)	(71,1)	(26,1)	(19,8)	(5,4)	(122,1)	(6,1)	(140,2)	(-11,5)	(1,2)	(144,1)	(142,4)	(52,1)	(3,3)	(74,1)	
L1D -141>	(142,1)	(43,13)	(36,4)	(6,65)	(40,55)	(24,43)	(23,12)	(38,68)	(37,48)	(25,97)	(26,58)	(27,23)	(21,77)	(41,55)	(42,46)	(39,35)	
L1D -140>	(0,76)	(141,4)	(-33,5)	(138,4)	(123,2)	(117,2)	(12,18)	(121,3)	(186,1)	(-3,5)	(177,11)	(1,5)	(129,4)	(125,2)	(172,2)	(119,3)	
L1D -139>	(-327,100)	(1,3)	(138,34)	(0,4)	(3,9)	(19,5)	(-14,20)	(29,1)	(137,4)	(2,4)	(52,1)	(100,1)	(-1,2)	(139,4)	(122,1)	(-2,1)	
L1D -138>	(137,72)	(-14,87)	(5,2)	(136,4)	(-1,1)	(0,9)	(138,11)	(68,1)	(-327,54)	(1,5)	(-4,34)	(3,1)	(17,22)	(222,1)	(-20,1)	(-232,1)	
L1D -137>	(200,1)	(174,0)	(-7,71)	(5,0)	(0,5)	(136,21)	(190,0)	(105,0)	(138,1)	(135,0)	(-33,15)	(-14,4)	(23,0)	(-95,0)	(19,0)	(6,0)	
L1D -136>	(0,11)	(136,0)	(135,1)	(2,0)	(121,1)	(-77,0)	(122,0)	(-44,4)	(-1,0)	(-14,89)	(267,0)	(138,17)	(1,0)	(190,0)	(1,0)	(1,0)	
L1D -135>	(0,3)	(111,0)	(-8,97)	(6,1)	(135,0)	(136,0)	(138,0)	(-14,0)	(-84,1)	(3,0)	(1,0)	(1,0)	(1,0)	(1,0)	(1,0)	(1,0)	
L1D -134>	(412,0)	(14,94)	(135,0)	(-32,3)	(416,0)	(1,0)	(0,0)	(2,0)	(132,0)	(44,0)	(-9,0)	(134,0)	(50,1)	(-94,0)	(171,0)	(1,0)	
L1D -133>	(133,2)	(134,2)	(14,109)	(-3,6)	(1,1)	(6,72)	(-40,14)	(-1,0)	(0,2)	(131,0)	(-5,0)	(-8,7)	(-33,5)	(2,0)	(-80,0)	(-51,4)	
L1D -132>	(-3,2)	(6,86)	(5,1)	(100,1)	(-1,13)	(1,3)	(179,24)	(0,5)	(142,1)	(204,0)	(133,2)	(132,2)	(33,3)	(-42,0)	(101,0)	(-34,19)	
L1D -131>	(6,25)	(-35,65)	(1,4)	(0,14)	(-82,27)	(-1,1)	(131,6)	(24,1)	(33,1)	(100,3)	(179,3)	(129,4)	(-15,114)	(-267,7)	(-22,9)	(2,1)	
L1D -130>	(-83,15)	(1,29)	(0,13)	(21,4)	(-1,6)	(130,4)	(-36,27)	(132,2)	(2,1)	(336,1)	(-137,1)	(128,4)	(131,1)	(57,1)	(-268,2)	(52,1)	
L1D -129>	(-95,1)	(0,6)	(-1,8)	(129,3)	(6,4)	(130,2)	(3,5)	(17,4)	(-30,1)	(127,4)	(-269,32)	(23,1)	(-26,1)	(100,1)	(-84,2)	(-37,1)	
L1D -128>	(34,117)	(0,3)	(179,3)	(1,53)	(2,1)	(-270,12)	(-2,5)	(-18,2)	(38,1)	(129,1)	(6,1)	(51,1)	(128,1)	(200,1)	(1,0)	(1,0)	
L1D -127>	(-126,0)	(315,0)	(34,100)	(128,0)	(0,0)	(1,0)	(1,0)	(1,0)	(1,0)	(1,0)	(1,0)	(1,0)	(1,0)	(1,0)	(1,0)	(1,0)	
L1D -126>	(100,1)	(179,28)	(125,15)	(6,72)	(0,3)	(-272,8)	(173,3)	(1,74)	(126,4)	(33,4)	(-3,11)	(-182,1)	(5,1)	(-58,1)	(2,3)	(68,1)	
L1D -125>	(126,0)	(125,3)	(5,0)	(90,0)	(0,1)	(6,0)	(123,0)	(-1,0)	(1,0)	(-273,0)	(21,0)	(24,0)	(300,0)	(-3,127)	(1,0)	(1,0)	
L1D -124>	(122,4)	(21,100)	(-274,7)	(-1,1)	(1,42)	(0,15)	(125,6)	(-196,1)	(3,1)	(123,1)	(5,2)	(2,4)	(124,6)	(-140,1)	(-20,1)	(6,1)	
L1D -123>	(105,65)	(1,4)	(4,1)	(123,2)	(17,0)	(0,2)	(-25,2)	(-11,0)	(148,0)	(122,0)	(-122,0)	(106,0)	(121,0)	(458,0)	(124,0)	(1,0)	
L1D -122>	(117,93)	(111,82)	(4,68)	(1,3)	(0,3)	(266,1)	(122,2)	(8,1)	(-138,0)	(-222,0)	(-204,0)	(-8,0)	(1,0)	(1,0)	(1,0)	(1,0)	
L1D -121>	(0,4)	(-7,69)	(-5,121)	(12,1)	(1,4)	(-1,2)	(121,5)	(-6,6)	(-17,3)	(276,1)	(50,1)	(6,1)	(122,2)	(11,3)	(117,1)	(35,1)	
L1D -120>	(109,41)	(103,68)	(10,0)	(0,1)	(1,57)	(38,0)	(220,0)	(120,2)	(-1,1)	(-8,5)	(-40,13)	(-45,0)	(173,0)	(121,1)	(30,1)	(-56,0)	
L1D -119>	(272,0)	(-18,68)	(-4,0)	(-1,1)	(0,2)	(18,0)	(-8,8)	(114,1)	(9,0)	(1,1)	(2,0)	(1,0)	(1,0)	(1,0)	(1,0)	(1,0)	
L1D -118>	(109,114)	(18,37)	(5,0)	(-18,0)	(118,0)	(114,0)	(3,0)	(0,0)	(-1,0)	(1,0)	(1,0)	(1,0)	(1,0)	(1,0)	(1,0)	(1,0)	
L1D -117>	(71,80)	(82,59)	(-5,98)	(1,11)	(2,1)	(117,7)	(67,7)	(112,4)	(55,3)	(-11,1)	(4,1)	(5,0)	(0,2)	(115,2)	(-116,0)	(118,2)	
L1D -116>	(117,7)	(70,2)	(81,123)	(18,2)	(-7,105)	(1,3)	(2,3)	(-214,2)	(116,10)	(-76,1)	(0,9)	(380,1)	(20,1)	(3,1)	(114,4)	(-1,2)	
L1D -115>	(13,109)	(-5,27)	(80,30)	(69,13)	(98,12)	(116,1)	(-283,3)	(115,5)	(-31,5)	(0,1)	(65,1)	(112,1)	(-76,1)	(-65,15)	(113,0)	(-38,3)	
L1D -114>	(-1,87)	(-66,5)	(-30,0)	(-190,0)	(-7,2)	(113,1)	(0,0)	(-342,0)	(-2,0)	(69,0)	(114,1)	(-5,0)	(-3,0)	(1,0)	(1,0)	(1,0)	
L1D -113>	(51,3)	(67,17)	(78,25)	(1,4)	(-9,44)	(-33,12)	(113,7)	(0,3)	(47,6)	(63,2)	(4,4)	(111,4)	(278,1)	(3,4)	(-40,5)	(-285,5)	
L1D -112>	(86,12)	(-4,30)	(113,19)	(-68,6)	(68,7)	(112,15)	(-5,39)	(0,15)	(61,1)	(117,11)	(-34,34)	(-1,10)	(-286,4)	(-41,4)	(12,46)	(111,6)	
L1D -111>	(93,76)	(45,41)	(0,9)	(62,1)	(6,11)	(1,6)	(9,47)	(-1,3)	(98,19)	(100,9)	(112,2)	(-35,33)	(-42,13)	(111,11)	(-287,15)	(109,4)	
L1D -110>	(-10,33)	(-1,54)	(33,34)	(32,30)	(99,3)	(110,12)	(1,11)	(55,15)	(478,1)	(0,79)	(224,6)	(8,20)	(97,5)	(120,119)	(42,6)	(78,5)	
L1D -109>	(266,103)	(-5,0)	(23,0)	(110,0)	(20,3)	(-70,0)	(18,0)	(7,0)	(9,0)	(1,0)	(1,0)	(1,0)	(1,0)	(1,0)	(1,0)	(1,0)	
L1D -108>	(-1,1)	(-12,60)	(-54,38)	(107,3)	(2,2)	(1,18)	(-81,1)	(-2,33)	(-10,35)	(-6,5)	(60,0)	(0,35)	(78,71)	(108,2)	(110,61)	(97,5)	
L1D -107>	(-8,1)	(109,117)	(21,7)	(108,5)	(5,6)	(14,0)	(-5,1)	(-106,0)	(8,26)	(107,0)	(0,0)	(16,8)	(27,0)	(-3,1)	(98,0)	(31,5)	
L1D -106>	(13,68)	(105,3)	(-16,0)	(0,0)	(104,0)	(15,20)	(107,0)	(-4,0)	(3,0)	(106,2)	(24,0)	(6,0)	(1,1)	(99,0)	(-43,0)	(-12,0)	
L1D -105>	(105,15)	(0,17)	(13,12)	(106,2)	(-4,19)	(86,5)	(-242,0)	(-2,0)	(-328,66)	(3,0)	(12,44)	(-1,30)	(4,11)	(29,0)	(128,0)	(1,0)	
L1D -104>	(50,1)	(-137,0)	(5,97)	(28,0)	(105,0)	(18,77)	(14,0)	(-2,3)	(392,0)	(0,0)	(17,0)	(1,0)	(3,0)	(1,0)	(1,0)	(1,0)	
L1D -103>	(99,0)	(2,25)	(18,78)	(60,77)	(103,0)	(52,0)	(12,99)	(11,6)	(17,47)	(1,21)	(4,47)	(-2,20)	(-1,1)	(-5,0)	(10,0)	(7,1)	
L1D -102>	(13,0)	(15,0)	(104,86)	(103,0)	(0,0)	(-7,2)	(30,0)	(-5,0)	(11,0)	(2,0)	(-6,6)	(12,9)	(4,9)	(102,1)	(120,0)	(-2,5)	
L1D -101>	(0,3)	(-1,29)	(140,0)	(190,112)	(41,52)	(3,0)	(-60,0)	(-272,0)	(-42,0)	(2,38)	(100,0)	(103,0)	(98,0)	(101,0)	(6,0)	(1,0)	
L1D -100>	(17,42)	(34,9)	(38,92)	(49,2)	(35,13)	(-3,22)	(-13,10)	(-7,12)	(92,2)	(7,20)	(2,11)	(91,11)	(28,113)	(-6,12)	(100,25)	(-9,1)	
L1D -99>	(-58,0)	(0,64)	(1,29)	(78,10)	(62,101)	(24,25)	(99,25)	(38,31)	(110,1)	(98,28)	(60,10)	(89,6)	(87,4)	(101,15)	(61,4)	(-4,37)	
L1D -98>	(98,51)	(-1,18)	(0,55)	(60,69)	(2,0)	(78,55)	(99,4)	(28,6)	(97,7)	(-58,5)	(109,0)	(108,11)	(1,0)	(111,1)	(29,1)	(24,0)	
L1D -97>	(-96,0)	(98,24)	(95,0)	(41,80)	(2,81)	(97,2)	(0,0)	(150,0)	(1,0)	(99,0)	(29,16)	(87,0)	(109,0)	(3,0)	(262,0)	(88,0)	
L1D -96>	(-9,76)	(-1,1)	(0,72)	(1,4)	(107,17)	(15,0)	(-28,0)	(-58,81)	(7,3)	(85,0)	(98,2)	(46,0)	(97,1)	(96,2)	(-181,0)	(176,0)	
L1D -95>	(105,2)	(2,95)	(1,45)	(0,3)	(110,0)	(112,0)	(4,1)	(84,3)	(232,3)	(224,6)	(6,1)	(-13,2)	(95,0)	(1,0)	(1,0)	(1,0)	
L1D -94>	(-50,1)	(-30,1)	(-145,1)	(-14,1)	(100,1)	(-258,0)	(1,3)	(4,32)	(101,0)	(94,2)	(-34,7)	(0,3)	(83,110)	(-33,16)	(88,0)	(13,0)	
L1D -93>	(-15,1)	(-17,3)	(-1,30)	(-8,43)	(45,53)	(1,1)	(0,35)	(27,91)	(2,53)	(-7,23)	(107,2)	(-19,2)	(-10,0)	(128,0)	(95,0)	(88,0)	
L1D -92>	(27,110)	(97,7)	(90,1)	(0,7)	(92,1)	(-9,56)	(88,0)	(107,13)	(93,5)	(1,6)	(6,0)	(-91,0)	(-20,0)	(-4,1)	(2,4)	(-41,0)	
L1D -91>	(5,11)	(91,107)	(96,3)	(93,5)	(34,0)	(175,0)	(15,3)	(452,0)	(1,0)	(-1,0)	(-53,0)	(0,0)	(-12,5)	(6,0)	(-16,1)	(1,0)	
L1D -90>	(90,5)	(96,0)	(-34,0)	(-1,7)	(88,0)	(9,98)	(81,11)	(14,0)	(18,30)	(91,20)	(15,1)	(-35,0)	(1,1)	(-39,0)	(1,0)	(1,0)	
L1D -89>	(98,1)	(1,68)	(0,54)	(6,19)	(-34,17)	(-24,0)	(88,97)	(91,5)	(126,0)	(90,0)	(-16,4)	(114,0)	(-1,8)	(89,0)	(-35,0)	(1,0)	
L1D -88>	(0,122)	(416,0)	(90,1)	(1,10)	(88,39)	(2,0)	(6,0)	(26,0)	(-1,0)	(-72,0)	(-11,0)	(1,0)	(1,0)	(1,0)	(1,0)	(1,0)	
L1D -87>	(0,67)	(1,32)	(98,81)	(6,1)	(87,120)	(9,5)	(-86,1)	(-1,1)	(86,0)	(89,18)	(346,0)	(88,36)	(26,1)	(-5,0)	(2,0)	(1,0)	
L1D -86>	(-18,73)	(2,0)	(-16,3)	(-20,4)	(88,8)	(5,0)	(86,1)	(87,1)	(1,0)	(47,0)	(9,0)	(-2,0)	(-4,2)	(0,2)	(85,0)	(-1,0)	
L1D -85>	(-20,1)	(-9,1)	(107,3)	(45,1)	(90,1)	(-8,23)	(-18,10)	(92,0)	(86,0)	(5,1)	(87,1)	(1,1)	(2,0)	(-13,2)	(-15,0)	(-23,81)	
L1D -84>	(224,14)	(-14,69)	(29,2)	(65,0)	(84,0)	(44,0)	(83,2)	(42,0)	(1,3)	(360,0)	(110,1)	(94,0)	(0,1)	(26,0)	(-18,0)	(67,0)	
L1D -83>	(-248,1)	(11,14)	(1,0)	(-9,113)	(161,0)	(4,0)	(81,0)	(0,4)	(-5,25)	(108,10)	(2,0)	(90,0)	(85,1)	(83,0)	(136,0)	(3,0)	
L1D -82>	(26,1)	(117,65)	(46,0)	(-115,17)	(-107,18)	(0,0)	(-102,93)	(25,9)	(83,3)	(-23,10)	(81,13)	(82,0)	(16,0)	(-5,3)	(71,1)	(6,0)	
L1D -81>	(116,0)	(27,0)	(81,0)	(-7,0)	(3,69)	(2,0)	(9,1)	(6,11)	(5,70)	(-23,0)	(22,0)	(25,0)	(1,0)	(-107,0)	(-13,0)	(-1,0)	
L1D -80>	(115,67)	(-1,0)	(69,1)	(6,13)	(18,35)	(-223,0)	(-58,20)	(15,13)	(4,0)	(9,82)	(81,14)	(0,14)	(103,0)	(1,1)	(5,0)	(352,0)	
L1D -79>	(62,1)	(99,1)	(75,3)	(61,7)	(7,25)	(21,4)	(132,1)	(81,18)	(18,5)	(35,2)	(9,98)	(5,17)	(42,97)	(15,1)	(79,0)	(14,6)	
L1D -78>	(60,110)	(0,102)	(-36,43)	(13,2)	(15,1)	(-1,3)	(-58,17)	(87,9)	(40,82)	(113,15)	(89,6)	(98,18)	(354,0)	(83,1)	(99,10)	(2,3)	
L1D -77>	(78,1)	(1,13)	(3,1)	(-37,61)	(77,72)	(0,1)	(13,3)	(-2,7)	(40,82)	(15,48)	(130,0)	(-3,0)	(55,0)	(-12,0)	(-70,0)	(-72,0)	
L1D -76>	(76,1)	(43,0)	(75,0)	(0,0)	(-3,0)	(3,0)	(-2,0)	(1,0)	(-36,0)	(38,1)	(2,0)	(466,0)	(18,73)	(5,0)	(-5,0)	(-38,1)	
L1D -75>	(37,0)	(32,0)	(18,0)	(0,4)	(76,3)	(75,8)	(132,0)	(-39,0)	(360,0)	(-108,0)	(33,0)	(-6,0)	(-4,127)	(10,15)	(12,60)	(1,4)	
L1D -74>	(1,7)	(-4,0)	(-18,10)	(-2,0)	(2,0)	(30,121)	(16,31)	(74,0)	(0,1)	(-45,0)	(-5,0)	(12,0)	(17,1)	(32,0)	(73,0)	(50,0)	
L1D -73>	(111,114)	(1,1)	(15,15)	(6,1)	(75,17)	(0,104)	(73,15)	(83,1)	(74,2)	(2,1)	(360,1)	(11,3)	(130,3)	(4,1)	(71,2)	(-108,3)	
L1D -72>	(-6,1)	(2,3)	(5,0)	(72,0)	(28,83)	(7,0)	(-1,1)	(15,0)	(-4,0)	(9,67)	(4,1)	(-7,0)	(34,9)	(-8,0)	(-3,18)	(1,0)	
L1D -71>	(9,106)	(57,1)	(2,17)	(0,4)	(18,1)	(-10,17)	(-7,40)	(76,13)	(70,111)	(-8,38)	(72,1)	(71,8)	(1,47)	(-215,1)	(162,1)	(-21,40)	
L1D -70>	(1,114)	(30,107)	(163,1)	(-85,20)	(11,1)	(70,8)	(71,1)	(-2,3)	(121,5)	(2,0)	(267,1)	(1,0)	(1,0)	(1,0)	(1,0)	(1,0)	
L1D -69>	(18,48)	(109,126)	(207,1)	(22,6)	(5,0)	(-7,5)	(69,0)	(10,1)	(7,3)	(1,0)	(-85,1)	(-10,1)	(23,0)	(-87,0)	(-86,0)	(70,0)	
L1D -68>	(68,5)	(37,16)	(47,38)	(1,16)	(7,2)	(-2,1)	(69,97)	(180,7)	(201,2)	(239,1)	(22,21)	(5,3)	(-87,1)	(-16,3)	(-20,1)	(0,91)	
L1D -67>	(2,44)	(-108,1)	(0,8)	(72,1)	(-14,77)	(3,2)	(203,0)	(61,5)	(68,1)	(-42,0)	(67,11)	(-9,2)	(116,0)	(1,8)	(1,0)	(1,0)	
L1D -66>	(-6,0)	(0,33)	(-45,69)	(-15,6)	(1,1)	(-46,0)	(-34,23)	(67,5)	(66,1)	(-25,1)	(-36,0)	(76,0)	(188,0)	(-33,3)	(180,0)	(-1,0)	
L1D -65>	(-34,1)	(65,1)	(-10,43)	(-2,4)	(0,14)	(6,0)	(2,68)	(27,0)	(-30,0)	(-44,14)	(-6,0)	(-35,0)	(-22,0)	(-3,0)	(1,3)	(1,0)	
L1D -64>	(322,1)	(-1,0)	(27,2)	(76,0)	(69,3)	(97,0)	(192,0)	(65,0)	(64,92)	(81,0)	(0,1)	(1,4)	(1,0)	(1,0)	(1,0)	(1,0)	
L1D -63>	(100,0)	(-16,3)	(1,0)	(63,90)	(5,8)	(-380,0)	(-54,0)	(20,0)	(19,0)	(0,0)	(26,0)	(-13,0)	(-9,0)	(-12,13)	(-8,0)	(60,0)	
L1D -62>	(51,98)	(0,5)	(-137,1)	(52,10)	(53,0)	(68,0)	(69,0)	(62,0)	(-3,2)	(-23,1)	(-12,0)	(2,0)	(11,12)	(42,0)	(63,1)	(1,0)	
L1D -61>	(3,17)	(1,71)	(-108,1)	(-1,0)	(8,0)	(99,2)	(36,0)	(0,0)	(-70,0)	(257,0)	(185,0)	(61,1)	(62,0)	(59,0)	(1,0)	(1,0)	
L1D -60>	(60,68)	(-1,11)	(99,29)	(0,20)	(104,0)	(36,0)	(6,0)	(2,1)	(-137,0)	(59,0)	(1,0)	(1,0)	(1,0)	(1,0)	(1,0)	(1,0)	
L1D -59>	(1,19)	(33,1)	(0,8)	(59,4)	(60,1)	(-13,121)	(-1,2)	(-3,1)	(36,1)	(2,1)	(63,0)	(3,0)	(37,2)	(116,0)	(-108,1)	(57,0)	
L1D -58>	(-16,4)	(2,15)	(0,0)	(-14,1)	(58,0)	(1,12)	(47,0)	(-4,0)	(-20,0)	(80,0)	(-18,66)	(9,0)	(4,0)	(1,0)	(1,0)	(1,0)	
L1D -57>	(-10,7)	(8,1)	(58,8)	(-22,2)	(57,76)	(-1,6)	(19,1)	(0,116)	(1,15)	(-47,4)	(-25,6)	(62,4)	(47,1)	(-350,1)	(53,0)	(29,1)	
L1D -56>	(2,111)	(55,0)	(-1,8)	(6,0)	(-32,0)	(16,0)	(45,0)	(56,0)	(0,0)	(-2,0)	(1,0)	(1,0)	(1,0)	(1,0)	(1,0)	(1,0)	
L1D -55>	(1,7)	(45,8)	(55,2)	(-1,56)	(108,1)	(49,3)	(116,1)	(-108,1)	(7,0)	(2,0)	(266,113)	(64,0)	(35,0)	(96,0)	(0,1)	(-5,0)	
L1D -54>	(54,1)	(-27,31)	(3,1)	(7,1)	(-1,118)	(313,1)	(40,7)	(56,114)	(1,49)	(-2,1)	(-52,2)	(101,0)	(162,2)	(18,0)	(0,0)	(-23,1)	
L1D -53>	(54,7)	(358,46)	(53,14)	(64,99)	(20,0)	(17,2)	(2,0)	(-108,0)	(29,1)	(52,0)	(161,1)	(1,1)	(1,0)	(1,0)	(1,0)	(1,0)	
L1D -52>	(1,91)	(24,2)	(-5,0)	(47,0)	(52,0)	(32,0)	(29,27)	(0,1)	(88,0)	(40,0)	(39,0)	(1,0)	(1,0)	(1,0)	(1,0)	(1,0)	
L1D -51>	(1,65)	(-44,2)	(49,1)	(6,3)	(-69,6)	(56,2)	(51,7)	(155,0)	(-30,21)	(-5,11)	(52,3)	(26,0)	(5,1)	(-29,0)	(0,2)	(23,0)	
L1D -50>	(1,77)	(2,92)	(0,3)	(324,1)	(60,1)	(6,0)	(49,0)	(51,0)	(4,6)	(1,0)	(1,0)	(1,0)	(1,0)	(1,0)	(1,0)	(1,0)	
L1D -49>	(2,1)	(38,2)	(-62,0)	(48,1)	(49,2)	(34,3)	(1,1)	(50,0)	(41,1)	(47,0)	(-19,1)	(18,2)	(0,89)	(56,3)	(-5,14)	(44,6)	
L1D -48>	(6,0)	(-37,0)	(3,6)	(-1,74)	(-72,0)	(18,0)	(0,7)	(49,1)	(12,1)	(-29,0)	(4,0)	(2,6)	(55,0)	(50,1)	(9,0)	(48,0)	
L1D -47>	(47,91)	(0,18)	(-108,30)	(-215,0)	(52,1)	(48,1)	(-246,0)	(5,0)	(26,0)	(1,0)	(1,0)	(1,0)	(1,0)	(1,0)	(1,0)	(1,0)	
L1D -46>	(47,62)	(1,65)	(398,0)	(51,6)	(45,16)	(3,0)	(113,1)	(17,0)	(48,57)	(44,17)	(-4,9)	(56,1)	(0,0)	(93,5)	(46,0)	(-2,0)	
L1D -45>	(-46,0)	(1,3)	(52,0)	(72,0)	(2,1)	(-1,0)	(45,92)	(93,10)	(63,5)	(-220,0)	(171,0)	(19,1)	(134,0)	(17,0)	(43,0)	(-48,0)	
L1D -44>	(110,7)	(-180,5)	(-13,70)	(46,104)	(1,2)	(-21,37)	(25,2)	(42,27)	(-35,16)	(44,31)	(9,4)	(21,2)	(39,2)	(224,6)	(22,11)	(17,2)	
L1D -43>	(45,6)	(9,87)	(90,0)	(6,4)	(47,1)	(44,3)	(43,3)	(58,4)	(48,0)	(7,105)	(-7,3)	(18,6)	(-13,0)	(-11,0)	(109,0)	(-12,1)	
L1D -42>	(42,116)	(1,4)	(33,6)	(43,1)	(6,11)	(80,1)	(-18,0)	(34,0)	(51,0)	(32,0)	(0,0)	(38,0)	(44,17)	(24,0)	(41,1)	(39,1)	
L1D -41>	(41,78)	(22,2)	(42,2)	(10,2)	(9,3)	(40,13)	(7,1)	(43,86)	(32,1)	(20,1)	(39,3)	(33,3)	(35,1)	(38,2)	(25,1)	(34,2)	
L1D -40>	(1,8)	(148,5)	(40,75)	(39,53)	(-16,35)	(25,0)	(15,0)	(53,1)	(0,14)	(-13,3)	(4,0)	(-1,2)	(6,2)	(3,0)	(33,1)	(41,0)	
L1D -39>	(39,94)	(50,10)	(34,10)	(17,1)	(8,2)	(38,4)	(37,2)	(41,20)	(33,3)	(0,7)	(27,2)	(9,3)	(26,1)	(11,4)	(35,16)	(42,11)	
L1D -38>	(12,47)	(49,5)	(36,62)	(-1,2)	(34,6)	(37,22)	(0,2)	(38,111)	(41,4)	(-6,6)	(-34,11)	(44,23)	(39,2)	(10,95)	(-25,4)	(3,7)	
L1D -37>	(37,1)	(196,0)	(-38,21)	(-35,7)	(6,0)	(-44,1)	(2,0)	(-4,2)	(35,0)	(-30,4)	(28,0)	(16,7)	(-22,84)	(-1,0)	(34,0)	(-7,0)	
L1D -36>	(-6,8)	(25,127)	(36,57)	(44,12)	(-1,44)	(2,82)	(3,1)	(-5,5)	(37,4)	(33,2)	(34,3)	(38,24)	(-4,19)	(35,5)	(11,98)	(9,2)	
L1D -35>	(-80,3)	(79,1)	(34,0)	(35,13)	(-2,1)	(9,11)	(-3,3)	(28,0)	(38,0)	(-82,4)	(14,75)	(1,7)	(41,2)	(-78,0)	(-81,2)	(72,5)	
L1D -34>	(49,10)	(0,106)	(34,50)	(9,1)	(38,79)	(-11,3)	(29,0)	(-14,1)	(2,8)	(-3,0)	(71,0)	(1,69)	(30,0)	(-4,0)	(19,0)	(39,0)	
L1D -33>	(-3,10)	(19,11)	(-62,1)	(0,5)	(1,102)	(34,11)	(180,3)	(33,38)	(2,4)	(-216,1)	(25,2)	(32,5)	(28,1)	(24,1)	(35,1)	(36,1)	
L1D -32>	(0,7)	(33,46)	(37,11)	(32,121)	(31,50)	(4,5)	(-14,7)	(-2,18)	(38,10)	(30,16)	(1,5)	(22,1)	(40,10)	(23,8)	(34,27)	(41,4)	
L1D -31>	(32,15)	(2,26)	(4,17)	(-2,11)	(31,90)	(-11,4)	(-49,1)	(0,39)	(34,12)	(29,2)	(9,7)	(417,15)	(12,95)	(-14,74)	(28,6)	(15,11)	
L1D -30>	(3,26)	(8,83)	(-23,94)	(0,15)	(2,83)	(268,1)	(31,5)	(26,4)	(18,2)	(6,25)	(25,13)	(37,4)	(-14,29)	(-6,12)	(30,38)	(-72,4)	
L1D -29>	(0,4)	(29,107)	(-6,4)	(3,69)	(1,7)	(26,30)	(-13,6)	(2,2)	(34,1)	(43,14)	(6,8)	(-1,7)	(17,3)	(23,2)	(14,2)	(25,2)	
L1D -28>	(2,67)	(-6,5)	(20,0)	(0,45)	(-319,46)	(1,30)	(-13,8)	(3,3)	(-320,69)	(28,35)	(-14,5)	(10,15)	(25,3)	(-7,1)	(36,3)	(32,5)	
L1D -27>	(28,1)	(22,1)	(189,1)	(-25,3)	(27,96)	(288,0)	(-2,0)	(184,0)	(1,113)	(0,0)	(3,0)	(4,1)	(40,6)	(-13,5)	(32,0)	(20,0)	
L1D -26>	(28,0)	(5,0)	(7,0)	(27,0)	(1,104)	(-1,2)	(19,3)	(14,0)	(25,0)	(0,1)	(26,0)	(-13,0)	(33,3)	(45,1)	(35,0)	(6,1)	
L1D -25>	(-16,82)	(-13,1)	(-12,37)	(-20,1)	(0,6)	(82,3)	(25,53)	(-7,1)	(-23,9)	(1,43)	(41,12)	(-84,1)	(63,33)	(-1,4)	(26,69)	(-57,0)	
L1D -24>	(32,23)	(19,1)	(-61,1)	(7,82)	(25,1)	(42,0)	(24,8)	(12,11)	(28,0)	(-2,2)	(2,7)	(0,10)	(8,0)	(41,1)	(33,1)	(1,13)	
L1D -23>	(22,42)	(28,2)	(24,2)	(36,5)	(6,14)	(-1,50)	(-7,24)	(2,30)	(0,56)	(23,68)	(1,25)	(-4,20)	(12,35)	(4,9)	(118,114)	(3,11)	
L1D -22>	(0,0)	(3,0)	(-6,0)	(59,2)	(-19,1)	(36,3)	(-4,3)	(22,1)	(1,4)	(19,0)	(13,0)	(-13,89)	(-3,0)	(2,0)	(-2,44)	(9,1)	
L1D -21>	(5,78)	(0,10)	(15,4)	(1,1)	(21,3)	(9,4)	(3,5)	(16,1)	(-10,68)	(-78,3)	(18,0)	(2,8)	(20,9)	(-4,0)	(7,12)	(24,4)	
L1D -20>	(40,45)	(239,1)	(-1,7)	(20,0)	(13,93)	(1,0)	(-78,0)	(6,1)	(5,5)	(26,1)	(-3,0)	(24,0)	(33,0)	(0,5)	(17,0)	(14,0)	
L1D -19>	(15,9)	(4,8)	(40,5)	(63,11)	(-12,3)	(-1,109)	(101,2)	(-86,2)	(-13,4)	(-7,30)	(19,48)	(1,21)	(-4,2)	(-15,2)	(5,16)	(12,1)	
L1D -18>	(11,2)	(38,17)	(9,2)	(76,9)	(2,12)	(-1,0)	(-3,3)	(5,2)	(4,1)	(-2,8)	(-5,1)	(-35,0)	(18,82)	(1,4)	(15,1)	(22,1)	
L1D -17>	(0,72)	(76,0)	(-4,1)	(-2,0)	(-5,2)	(-7,0)	(17,0)	(38,0)	(2,0)	(16,0)	(-15,1)	(11,0)	(4,0)	(48,0)	(1,0)	(-1,0)	
L1D -16>	(16,32)	(-14,1)	(36,7)	(15,16)	(-5,2)	(18,5)	(1,115)	(42,96)	(21,8)	(79,23)	(-4,16)	(-2,13)	(17,4)	(9,20)	(102,3)	(6,8)	
L1D -15>	(6,1)	(8,0)	(5,107)	(1,11)	(-3,1)	(17,0)	(9,45)	(-5,0)	(-11,3)	(7,26)	(0,2)	(16,1)	(3,35)	(35,0)	(2,0)	(25,0)	
L1D -14>	(3,2)	(4,2)	(0,14)	(63,1)	(8,4)	(6,89)	(108,1)	(-2,13)	(10,2)	(22,1)	(-14,2)	(-3,3)	(101,0)	(12,0)	(1,3)	(2,28)	
L1D -13>	(-3,120)	(17,24)	(9,6)	(165,10)	(1,64)	(15,1)	(5,5)	(38,4)	(-9,6)	(-8,3)	(-2,1)	(13,1)	(-5,3)	(95,2)	(72,4)	(34,1)	
L1D -12>	(-9,19)	(13,0)	(75,4)	(2,4)	(4,3)	(-2,6)	(8,1)	(12,0)	(118,2)	(11,0)	(1,5)	(48,0)	(3,4)	(-4,71)	(99,0)	(-87,0)	
L1D -11>	(153,2)	(9,1)	(4,2)	(-107,1)	(0,28)	(-9,114)	(-7,11)	(-12,2)	(13,3)	(-46,5)	(2,8)	(-79,42)	(11,24)	(-16,1)	(15,1)	(1,27)	
L1D -10>	(30,14)	(17,8)	(12,97)	(1,1)	(0,8)	(-2,6)	(2,4)	(-98,3)	(9,5)	(117,4)	(48,2)	(-5,6)	(7,1)	(-46,1)	(-80,26)	(10,33)	
L1D -9>	(72,4)	(21,26)	(7,91)	(1,10)	(28,12)	(0,11)	(3,4)	(-7,4)	(2,1)	(9,37)	(12,13)	(44,1)	(13,1)	(5,20)	(-1,22)	(-9,2)	
L1D -8>	(103,2)	(70,6)	(-4,1)	(0,0)	(109,3)	(115,3)	(-16,1)	(1,14)	(6,12)	(8,1)	(4,0)	(-77,0)	(129,8)	(34,1)	(9,1)	(14,65)	
L1D -7>	(123,2)	(-9,23)	(0,36)	(1,105)	(15,4)	(263,1)	(27,10)	(6,3)	(14,13)	(34,10)	(134,3)	(-5,12)	(7,39)	(9,5)	(8,4)	(-26,13)	
L1D -6>	(30,1)	(-8,5)	(-19,0)	(-10,0)	(1,6)	(6,0)	(18,0)	(-9,15)	(0,15)	(-15,68)	(3,0)	(-2,0)	(-6,14)	(-14,34)	(-32,0)	(-12,1)	
L1D -5>	(43,5)	(-103,19)	(-15,29)	(-251,1)	(0,25)	(5,24)	(35,6)	(1,72)	(9,30)	(-6,48)	(7,40)	(-7,13)	(10,16)	(-1,4)	(-11,65)	(42,1)	
L1D -4>	(6,48)	(20,2)	(2,4)	(16,2)	(-168,3)	(4,19)	(21,3)	(79,69)	(35,6)	(0,9)	(3,5)	(-171,1)	(42,13)	(-18,2)	(63,1)	(8,10)	
L1D -3>	(0,29)	(7,2)	(6,19)	(12,12)	(1,23)	(3,36)	(-7,6)	(-1,4)	(90,1)	(2,52)	(-2,3)	(-9,13)	(4,24)	(10,75)	(-3,4)	(22,2)	
L1D -2>	(-136,1)	(20,24)	(-2,29)	(6,36)	(40,3)	(11,23)	(-16,22)	(3,49)	(14,11)	(1,105)	(2,121)	(17,4)	(8,3)	(15,11)	(0,14)	(19,34)	
L1D -1>	(87,1)	(-14,3)	(5,1)	(-23,1)	(-1,1)	(0,5)	(3,20)	(1,52)	(-3,1)	(-5,0)	(-6,2)	(13,5)	(15,0)	(2,86)	(-8,0)	(8,2)	
L1D 0>	(0,73)	(88,12)	(-2,4)	(13,1)	(33,1)	(306,1)	(5,0)	(-440,1)	(2,12)	(1,16)	(-41,0)	(3,1)	(-98,0)	(8,1)	(7,0)	(4,2)	
L1D 1>	(8,2)	(35,1)	(1,102)	(10,1)	(-3,1)	(-2,1)	(-11,0)	(2,12)	(15,1)	(-1,7)	(21,1)	(-88,0)	(-440,0)	(0,11)	(-4,0)	(3,2)	
L1D 2>	(13,7)	(0,93)	(2,58)	(14,11)	(5,1)	(54,12)	(1,63)	(17,4)	(-1,113)	(-50,2)	(-14,8)	(-6,15)	(-7,2)	(7,2)	(25,3)	(-2,10)	
L1D 3>	(1,83)	(78,76)	(10,4)	(4,22)	(-1,125)	(-8,7)	(126,1)	(17,18)	(6,1)	(0,7)	(73,2)	(-20,4)	(-3,28)	(-2,58)	(5,20)	(9,3)	
L1D 4>	(-4,49)	(-2,7)	(-1,18)	(4,9)	(16,13)	(14,39)	(-17,3)	(-12,47)	(-9,12)	(-47,1)	(-277,3)	(-3,20)	(1,15)	(12,1)	(-7,2)	(0,119)	
L1D 5>	(-1,1)	(4,10)	(140,1)	(30,0)	(76,46)	(13,0)	(9,4)	(2,38)	(-2,9)	(10,14)	(16,18)	(-5,6)	(-4,72)	(8,1)	(-18,4)	(1,12)	
L1D 6>	(-173,1)	(14,102)	(-3,2)	(-174,1)	(-12,14)	(123,2)	(-21,10)	(17,2)	(-6,2)	(21,2)	(38,1)	(11,3)	(13,0)	(31,1)	(8,23)	(-4,0)	
L1D 7>	(61,3)	(-18,5)	(2,3)	(-7,6)	(14,110)	(11,46)	(1,5)	(4,2)	(-1,4)	(-10,3)	(36,1)	(0,7)	(-70,1)	(3,2)	(-4,4)	(74,0)	
L1D 8>	(9,1)	(1,53)	(-4,1)	(43,13)	(-13,2)	(19,1)	(20,5)	(4,10)	(12,22)	(6,78)	(27,1)	(21,1)	(-2,10)	(-9,7)	(0,2)	(3,1)	
L1D 9>	(38,47)	(72,50)	(-2,7)	(12,4)	(1,5)	(63,24)	(67,3)	(-9,82)	(49,2)	(-12,2)	(-99,4)	(-14,5)	(-10,11)	(-6,1)	(-8,7)	(-11,5)	
L1D 10>	(27,115)	(-12,4)	(1,5)	(0,17)	(20,1)	(-10,19)	(3,7)	(6,8)	(-9,20)	(-90,1)	(255,1)	(7,1)	(8,2)	(38,1)	(-8,24)	(-11,6)	
L1D 11>	(-11,8)	(1,117)	(-90,76)	(63,7)	(-16,9)	(3,10)	(7,8)	(13,33)	(-8,1)	(-2,2)	(-110,1)	(0,7)	(-7,4)	(14,2)	(23,11)	(-12,120)	
L1D 12>	(-16,3)	(-3,16)	(0,2)	(-7,0)	(-10,1)	(63,35)	(-20,0)	(5,3)	(4,1)	(27,1)	(1,6)	(-9,0)	(24,0)	(-12,69)	(-18,1)	(-6,31)	
L1D 13>	(27,64)	(11,48)	(9,5)	(25,0)	(-34,16)	(-36,1)	(-11,0)	(0,22)	(26,0)	(1,10)	(-5,4)	(17,0)	(-2,0)	(-10,19)	(-32,1)	(7,4)	
L1D 14>	(-17,0)	(7,0)	(-10,4)	(2,0)	(-7,0)	(-18,0)	(-6,91)	(-13,1)	(-8,0)	(-4,0)	(0,1)	(26,0)	(-5,0)	(-21,2)	(-12,0)	(-1,0)	
L1D 15>	(63,5)	(5,4)	(-8,18)	(1,91)	(-2,1)	(-15,15)	(18,124)	(16,19)	(0,1)	(-26,12)	(313,5)	(-5,48)	(-16,13)	(-28,25)	(-152,4)	(-12,20)	
L1D 16>	(1,22)	(63,2)	(332,5)	(0,3)	(40,5)	(-10,25)	(-15,2)	(82,0)	(-6,113)	(-23,0)	(-11,1)	(2,5)	(-16,0)	(-12,11)	(27,1)	(-20,12)	
L1D 17>	(-17,78)	(58,6)	(20,5)	(-5,18)	(-8,8)	(-19,0)	(-23,0)	(-6,1)	(0,1)	(-10,17)	(-13,9)	(4,10)	(-31,0)	(-18,2)	(-3,1)	(-7,1)	
L1D 18>	(-6,1)	(-20,108)	(-12,4)	(58,0)	(-11,0)	(-9,17)	(-14,1)	(0,3)	(2,19)	(-23,1)	(-15,2)	(-17,2)	(-46,0)	(21,2)	(-10,2)	(-44,0)	
L1D 19>	(-17,114)	(-1,14)	(-19,13)	(-15,1)	(-26,1)	(-9,11)	(-36,1)	(38,1)	(7,1)	(230,1)	(-6,2)	(220,1)	(-32,0)	(1,4)	(0,4)	(-42,0)	
L1D 20>	(38,26)	(-24,19)	(-14,8)	(-21,36)	(-36,7)	(-43,2)	(-19,1)	(-6,117)	(-20,36)	(-18,3)	(-34,2)	(-26,11)	(-98,3)	(0,1)	(14,1)	(-1,4)	
L1D 21>	(-12,7)	(-27,15)	(20,3)	(-10,2)	(-26,96)	(-6,46)	(0,1)	(11,1)	(-18,1)	(-17,0)	(-16,1)	(-7,1)	(-3,1)	(-43,1)	(-99,1)	(-23,1)	
L1D 22>	(306,35)	(-9,9)	(-16,65)	(-4,8)	(0,11)	(-66,33)	(-32,1)	(-19,12)	(9,36)	(146,105)	(-33,15)	(-60,17)	(-13,52)	(-108,30)	(10,7)	(-22,93)	
L1D 23>	(-23,34)	(-1,101)	(-33,8)	(4,7)	(17,1)	(12,12)	(-22,8)	(0,9)	(16,2)	(-36,2)	(15,83)	(-16,40)	(9,1)	(-32,16)	(11,1)	(-29,2)	
L1D 24>	(146,89)	(-24,103)	(-14,14)	(32,45)	(-13,11)	(0,89)	(93,72)	(-32,34)	(29,57)	(-21,12)	(-20,11)	(-179,41)	(-11,1)	(-18,9)	(9,26)	(75,72)	
L1D 25>	(-27,22)	(-25,22)	(-48,1)	(-7,2)	(-18,40)	(-32,5)	(9,2)	(0,1)	(-1,120)	(49,1)	(50,1)	(-16,3)	(-5,1)	(12,1)	(-2,0)	(17,0)	
L1D 26>	(54,20)	(-26,33)	(-22,122)	(37,59)	(-20,4)	(0,8)	(2,39)	(-3,1)	(-28,4)	(8,1)	(-32,8)	(-21,3)	(7,0)	(-29,5)	(-24,1)	(1,3)	
L1D 27>	(-23,0)	(-34,5)	(53,0)	(-43,101)	(-32,0)	(-36,3)	(-25,0)	(14,0)	(-27,0)	(5,0)	(-28,0)	(-37,0)	(38,0)	(-7,0)	(4,0)	(-48,0)	
L1D 28>	(-39,1)	(-28,35)	(-21,113)	(-35,31)	(-37,22)	(-32,3)	(-19,11)	(-85,1)	(-14,10)	(44,28)	(-2,2)	(-54,2)	(28,2)	(4,3)	(8,1)	(-27,6)	
L1D 29>	(58,1)	(-15,82)	(-29,25)	(8,1)	(-246,1)	(-28,11)	(-41,1)	(-39,1)	(0,1)	(-12,40)	(-32,9)	(-43,4)	(-278,1)	(69,3)	(-36,1)	(1,1)	
L1D 30>	(75,13)	(-13,15)	(93,13)	(-36,1)	(-25,1)	(-21,2)	(-30,3)	(5,0)	(-1,1)	(-43,24)	(-32,8)	(90,0)	(0,0)	(14,1)	(15,0)	(-35,64)	
L1D 31>	(-32,58)	(-31,59)	(47,2)	(7,31)	(5,2)	(9,5)	(-33,7)	(-21,80)	(-36,13)	(10,2)	(-2,3)	(1,3)	(-6,5)	(-16,6)	(6,7)	(62,3)	
L1D 32>	(-32,121)	(2,2)	(-56,1)	(-14,21)	(-28,0)	(0,2)	(-30,3)	(-40,2)	(64,0)	(-39,0)	(-31,1)	(10,1)	(70,7)	(-36,1)	(-33,1)	(34,0)	
L1D 33>	(0,11)	(-33,71)	(9,16)	(6,14)	(-7,16)	(243,1)	(267,1)	(1,3)	(-1,3)	(265,1)	(279,1)	(3,2)	(-31,1)	(5,4)	(2,4)	(-32,65)	
L1D 34>	(26,6)	(-69,3)	(-34,37)	(-36,50)	(10,1)	(1,4)	(68,0)	(2,1)	(4,34)	(0,2)	(5,1)	(-2,1)	(-8,2)	(-32,28)	(-33,71)	(-14,1)	
L1D 35>	(-21,26)	(-19,1)	(-43,9)	(44,6)	(5,1)	(-3,0)	(70,0)	(-34,93)	(6,0)	(-32,5)	(-117,2)	(7,4)	(0,63)	(-31,2)	(-35,16)	(1,1)	
L1D 36>	(0,14)	(-36,54)	(-34,30)	(2,20)	(-32,9)	(83,1)	(4,19)	(-43,2)	(8,2)	(-6,1)	(-25,1)	(-35,65)	(-16,2)	(128,7)	(-2,3)	(3,7)	
L1D 37>	(-32,2)	(-63,17)	(-33,2)	(-5,0)	(-72,91)	(-1,0)	(159,1)	(-37,4)	(-81,1)	(-34,4)	(-42,0)	(-75,7)	(-59,2)	(-45,0)	(-2,0)	(-20,0)	
L1D 38>	(-38,1)	(11,119)	(76,1)	(15,1)	(-30,4)	(37,2)	(-25,4)	(1,1)	(-32,4)	(38,12)	(386,0)	(-63,20)	(9,3)	(0,3)	(-98,0)	(-36,1)	
L1D 39>	(-21,41)	(-30,16)	(11,110)	(-219,3)	(-5,43)	(-1,6)	(-71,3)	(-99,28)	(-40,103)	(0,15)	(-32,7)	(-39,85)	(10,17)	(1,26)	(-7,10)	(-33,3)	
L1D 40>	(38,1)	(-40,14)	(-8,0)	(386,2)	(-33,0)	(-36,5)	(-43,1)	(1,0)	(-32,4)	(-4,0)	(-1,1)	(65,0)	(0,0)	(-6,0)	(-25,97)	(2,0)	
L1D 41>	(0,69)	(-41,107)	(-32,7)	(1,10)	(7,25)	(-1,2)	(386,1)	(-2,2)	(-11,2)	(3,3)	(2,79)	(8,21)	(14,31)	(-5,3)	(-3,2)	(-7,21)	
L1D 42>	(-30,8)	(67,3)	(-32,5)	(-22,20)	(37,85)	(3,1)	(0,29)	(5,0)	(-1,0)	(-42,4)	(-3,0)	(-38,16)	(-35,11)	(2,26)	(-40,0)	(-41,16)	
L1D 43>	(-46,5)	(38,8)	(-7,0)	(-11,0)	(11,1)	(-54,4)	(-36,5)	(-43,4)	(12,0)	(-34,0)	(2,53)	(0,72)	(17,0)	(-42,28)	(-4,0)	(-9,0)	
L1D 44>	(1,76)	(-45,59)	(-6,11)	(-2,16)	(8,39)	(-44,63)	(24,20)	(-65,64)	(-118,15)	(0,96)	(-76,1)	(-35,15)	(-58,54)	(-63,24)	(18,118)	(11,17)	
L1D 45>	(-44,3)	(11,5)	(0,123)	(4,1)	(-9,17)	(-31,6)	(18,1)	(-119,1)	(27,1)	(1,0)	(8,2)	(-1,3)	(17,0)	(-2,0)	(-45,0)	(48,0)	
L1D 46>	(-45,71)	(5,15)	(26,99)	(-50,0)	(0,2)	(90,0)	(-91,0)	(6,0)	(-4,0)	(47,0)	(-9,1)	(92,0)	(-6,0)	(14,0)	(4,0)	(1,0)	
L1D 47>	(-46,101)	(83,1)	(101,0)	(0,1)	(-4,12)	(-146,0)	(-25,0)	(81,0)	(151,1)	(11,30)	(195,1)	(93,0)	(-355,0)	(55,1)	(15,1)	(1,0)	
L1D 48>	(-48,105)	(-34,1)	(-11,11)	(-1,39)	(-4,1)	(0,99)	(17,1)	(-49,79)	(96,3)	(14,2)	(-14,1)	(2,16)	(-93,1)	(3,1)	(15,45)	(1,1)	
L1D 49>	(-6,1)	(23,6)	(-11,93)	(100,1)	(-175,0)	(-2,0)	(-52,0)	(1,38)	(-118,1)	(-49,0)	(97,0)	(98,0)	(-78,0)	(-8,0)	(15,0)	(35,0)	
L1D 50>	(28,2)	(21,58)	(0,3)	(-110,13)	(-5,78)	(98,1)	(-48,16)	(-49,28)	(-30,1)	(2,7)	(146,1)	(-50,1)	(-2,12)	(100,2)	(-7,1)	(-12,12)	
L1D 51>	(-49,1)	(-4,13)	(-54,75)	(-2,0)	(-5,15)	(-34,0)	(102,1)	(-50,72)	(-120,5)	(-9,0)	(2,2)	(-51,2)	(-11,6)	(-43,2)	(-39,0)	(104,0)	
L1D 52>	(103,3)	(-82,3)	(-23,5)	(-55,27)	(294,1)	(104,6)	(-52,8)	(-37,1)	(106,4)	(4,1)	(0,1)	(-110,1)	(-51,28)	(5,0)	(-5,86)	(1,1)	
L1D 53>	(-52,66)	(0,1)	(170,1)	(97,0)	(108,0)	(106,1)	(113,0)	(6,2)	(-53,2)	(-13,0)	(4,0)	(125,0)	(105,0)	(-16,0)	(65,0)	(-146,0)	
L1D 54>	(-109,105)	(-11,0)	(5,0)	(0,0)	(-71,0)	(-53,0)	(108,2)	(107,0)	(1,0)	(1,0)	(1,0)	(1,0)	(1,0)	(1,0)	(1,0)	(1,0)	
L1D 55>	(-1,23)	(-54,8)	(-11,30)	(121,1)	(1,8)	(3,10)	(-5,74)	(0,68)	(-76,118)	(-55,7)	(-14,126)	(195,25)	(28,23)	(-6,48)	(-63,57)	(-30,17)	
L1D 56>	(-28,0)	(-81,9)	(-51,5)	(0,89)	(-54,9)	(-11,30)	(112,0)	(4,0)	(-40,7)	(2,2)	(-79,0)	(-57,36)	(-56,73)	(84,2)	(-60,0)	(1,0)	
L1D 57>	(116,1)	(-11,7)	(0,3)	(-57,98)	(171,1)	(1,1)	(11,0)	(-75,20)	(-76,1)	(17,0)	(-2,2)	(-78,14)	(-80,1)	(-82,55)	(-104,9)	(114,3)	
L1D 58>	(-11,102)	(-78,28)	(-76,12)	(22,0)	(-74,0)	(-81,1)	(23,0)	(-56,4)	(0,3)	(-57,0)	(-58,1)	(116,1)	(32,0)	(170,3)	(1,38)	(1,0)	
L1D 59>	(-72,13)	(1,4)	(-59,5)	(118,9)	(-58,85)	(0,2)	(-56,9)	(-1,1)	(4,1)	(-63,39)	(-65,6)	(-75,118)	(117,1)	(17,1)	(-76,5)	(3,1)	
L1D 60>	(39,82)	(-60,86)	(38,41)	(18,47)	(-61,24)	(120,0)	(0,4)	(321,4)	(-148,0)	(-266,0)	(122,0)	(146,0)	(119,0)	(29,0)	(1,0)	(1,0)	
L1D 61>	(-58,8)	(-60,83)	(39,109)	(18,33)	(38,42)	(-5,2)	(-93,29)	(0,4)	(-61,5)	(2,7)	(37,29)	(146,24)	(1,2)	(-7,1)	(-55,1)	(68,1)	
L1D 62>	(196,122)	(37,11)	(0,1)	(-61,1)	(124,1)	(242,0)	(-2,0)	(-62,1)	(20,0)	(3,1)	(-51,14)	(321,0)	(1,0)	(1,0)	(1,0)	(1,0)	
L1D 63>	(-70,0)	(-37,2)	(-63,0)	(-79,4)	(9,0)	(0,2)	(214,0)	(-18,0)	(-2,0)	(-75,21)	(-81,25)	(-72,58)	(-58,80)	(5,0)	(-76,34)	(-74,61)	
L1D 64>	(-108,0)	(-11,120)	(39,0)	(-77,0)	(1,1)	(0,7)	(127,0)	(19,0)	(128,0)	(-73,1)	(3,0)	(-64,5)	(1,0)	(1,0)	(1,0)	(1,0)	
L1D 65>	(1,2)	(130,3)	(0,20)	(-28,1)	(-59,1)	(17,2)	(-65,1)	(-99,94)	(-109,3)	(4,1)	(132,1)	(-1,1)	(-63,105)	(-75,0)	(-74,0)	(-87,0)	
L1D 66>	(-100,53)	(-69,5)	(-102,22)	(-109,2)	(-20,8)	(0,8)	(1,4)	(-67,1)	(-76,76)	(-62,24)	(2,2)	(-110,2)	(-18,1)	(114,7)	(-103,16)	(-91,25)	
L1D 67>	(-81,29)	(46,3)	(-110,65)	(1,2)	(0,3)	(137,4)	(-67,28)	(134,5)	(-77,49)	(-78,66)	(-95,5)	(-76,2)	(93,3)	(-75,2)	(-114,5)	(-65,5)	
L1D 68>	(-62,121)	(114,15)	(-139,1)	(0,0)	(-21,14)	(112,0)	(-28,0)	(-68,2)	(40,0)	(164,0)	(82,0)	(136,1)	(180,0)	(1,0)	(-6,0)	(1,0)	
L1D 69>	(-2,17)	(46,10)	(3,4)	(-1,1)	(0,3)	(-64,7)	(93,4)	(137,3)	(2,3)	(1,8)	(-47,89)	(-4,4)	(-69,2)	(138,2)	(-70,0)	(-46,1)	
L1D 70>	(-77,17)	(152,5)	(166,5)	(7,74)	(0,7)	(9,52)	(-40,25)	(-37,4)	(65,3)	(6,81)	(2,1)	(-74,17)	(-70,5)	(140,5)	(51,11)	(-19,1)	
L1D 71>	(-21,41)	(141,1)	(-7,1)	(-69,2)	(-14,1)	(-70,123)	(0,0)	(2,3)	(-4,1)	(93,6)	(-10,0)	(-63,0)	(-1,0)	(-62,0)	(4,0)	(46,1)	
L1D 72>	(-63,68)	(-75,4)	(-79,0)	(-65,2)	(-78,0)	(-23,0)	(0,0)	(2,0)	(-44,3)	(71,0)	(-73,0)	(114,0)	(14,0)	(-34,0)	(-76,0)	(144,0)	
L1D 73>	(1,1)	(2,0)	(-2,0)	(-123,0)	(-82,68)	(0,0)	(-26,0)	(-71,0)	(-73,0)	(-74,0)	(-62,0)	(-64,0)	(146,0)	(3,0)	(17,0)	(148,0)	
L1D 74>	(2,89)	(-108,1)	(0,49)	(-72,4)	(-74,6)	(-77,2)	(-44,3)	(-76,0)	(-75,0)	(-58,0)	(362,0)	(-1,0)	(-79,3)	(-100,6)	(148,0)	(-63,50)	
L1D 75>	(-74,10)	(0,8)	(16,81)	(-62,0)	(-38,6)	(-78,0)	(-80,0)	(-63,40)	(2,8)	(150,0)	(-75,3)	(-79,51)	(-58,0)	(1,1)	(3,0)	(-77,0)	
L1D 76>	(154,0)	(3,0)	(-75,0)	(0,0)	(-72,0)	(-154,0)	(-1,0)	(-78,3)	(-63,0)	(-58,0)	(-76,0)	(-81,70)	(-80,0)	(1,0)	(-2,0)	(-70,0)	
L1D 77>	(-62,47)	(0,7)	(-79,15)	(-76,118)	(-13,1)	(-37,21)	(-82,1)	(154,2)	(-1,11)	(104,1)	(-5,1)	(-51,1)	(5,1)	(-7,2)	(1,2)	(-20,1)	
L1D 78>	(-78,5)	(20,1)	(-81,89)	(-38,0)	(-63,0)	(158,0)	(11,0)	(-18,0)	(9,0)	(-79,0)	(21,0)	(-77,0)	(-148,0)	(-80,0)	(0,0)	(35,0)	
L1D 79>	(-65,1)	(-75,0)	(-12,0)	(20,0)	(-80,0)	(0,0)	(4,0)	(-58,0)	(-18,0)	(-74,4)	(-72,9)	(-79,4)	(-78,0)	(-63,1)	(-37,72)	(-76,49)	
L1D 80>	(7,1)	(-159,1)	(0,2)	(-81,118)	(108,5)	(-218,1)	(160,1)	(-53,4)	(-18,1)	(-46,1)	(1,2)	(-80,5)	(86,1)	(14,2)	(6,3)	(35,8)	
[...]
L1D 478>	(1,1)	(1,0)	(1,0)	(1,0)	(1,0)	(1,0)	(1,0)	(1,0)	(1,0)	(1,0)	(1,0)	(1,0)	(1,0)	(1,0)	(1,0)	(1,0)	
L1D 479>	(4,4)	(0,1)	(-475,1)	(1,0)	(1,0)	(1,0)	(1,0)	(1,0)	(1,0)	(1,0)	(1,0)	(1,0)	(1,0)	(1,0)	(1,0)	(1,0)	
L1D 480>	(4,1)	(1,1)	(0,1)	(1,0)	(1,0)	(1,0)	(1,0)	(1,0)	(1,0)	(1,0)	(1,0)	(1,0)	(1,0)	(1,0)	(1,0)	(1,0)	
L1D 481>	(4,7)	(1,1)	(3,1)	(1,0)	(1,0)	(1,0)	(1,0)	(1,0)	(1,0)	(1,0)	(1,0)	(1,0)	(1,0)	(1,0)	(1,0)	(1,0)	
L1D 482>	(1,1)	(4,2)	(-282,1)	(1,0)	(1,0)	(1,0)	(1,0)	(1,0)	(1,0)	(1,0)	(1,0)	(1,0)	(1,0)	(1,0)	(1,0)	(1,0)	
L1D 483>	(0,3)	(4,5)	(1,1)	(1,0)	(1,0)	(1,0)	(1,0)	(1,0)	(1,0)	(1,0)	(1,0)	(1,0)	(1,0)	(1,0)	(1,0)	(1,0)	
L1D 484>	(1,0)	(1,0)	(1,0)	(1,0)	(1,0)	(1,0)	(1,0)	(1,0)	(1,0)	(1,0)	(1,0)	(1,0)	(1,0)	(1,0)	(1,0)	(1,0)	
L1D 485>	(4,4)	(1,0)	(1,0)	(1,0)	(1,0)	(1,0)	(1,0)	(1,0)	(1,0)	(1,0)	(1,0)	(1,0)	(1,0)	(1,0)	(1,0)	(1,0)	
L1D 486>	(4,2)	(-92,1)	(1,1)	(1,0)	(1,0)	(1,0)	(1,0)	(1,0)	(1,0)	(1,0)	(1,0)	(1,0)	(1,0)	(1,0)	(1,0)	(1,0)	
L1D 487>	(1,0)	(1,0)	(1,0)	(1,0)	(1,0)	(1,0)	(1,0)	(1,0)	(1,0)	(1,0)	(1,0)	(1,0)	(1,0)	(1,0)	(1,0)	(1,0)	
L1D 488>	(1,0)	(1,0)	(1,0)	(1,0)	(1,0)	(1,0)	(1,0)	(1,0)	(1,0)	(1,0)	(1,0)	(1,0)	(1,0)	(1,0)	(1,0)	(1,0)	
L1D 489>	(4,1)	(0,1)	(1,0)	(1,0)	(1,0)	(1,0)	(1,0)	(1,0)	(1,0)	(1,0)	(1,0)	(1,0)	(1,0)	(1,0)	(1,0)	(1,0)	
L1D 490>	(-491,1)	(1,2)	(-204,1)	(0,2)	(1,0)	(1,0)	(1,0)	(1,0)	(1,0)	(1,0)	(1,0)	(1,0)	(1,0)	(1,0)	(1,0)	(1,0)	
L1D 491>	(-491,1)	(1,1)	(1,0)	(1,0)	(1,0)	(1,0)	(1,0)	(1,0)	(1,0)	(1,0)	(1,0)	(1,0)	(1,0)	(1,0)	(1,0)	(1,0)	
L1D 492>	(1,1)	(-10,1)	(2,1)	(0,1)	(-48,1)	(-492,1)	(1,0)	(1,0)	(1,0)	(1,0)	(1,0)	(1,0)	(1,0)	(1,0)	(1,0)	(1,0)	
L1D 493>	(4,1)	(1,0)	(1,0)	(1,0)	(1,0)	(1,0)	(1,0)	(1,0)	(1,0)	(1,0)	(1,0)	(1,0)	(1,0)	(1,0)	(1,0)	(1,0)	
L1D 494>	(1,2)	(-10,1)	(0,1)	(1,0)	(1,0)	(1,0)	(1,0)	(1,0)	(1,0)	(1,0)	(1,0)	(1,0)	(1,0)	(1,0)	(1,0)	(1,0)	
L1D 495>	(4,1)	(0,1)	(1,0)	(1,0)	(1,0)	(1,0)	(1,0)	(1,0)	(1,0)	(1,0)	(1,0)	(1,0)	(1,0)	(1,0)	(1,0)	(1,0)	
L1D 496>	(1,0)	(1,0)	(1,0)	(1,0)	(1,0)	(1,0)	(1,0)	(1,0)	(1,0)	(1,0)	(1,0)	(1,0)	(1,0)	(1,0)	(1,0)	(1,0)	
L1D 497>	(-2,1)	(0,1)	(-1,1)	(1,0)	(1,0)	(1,0)	(1,0)	(1,0)	(1,0)	(1,0)	(1,0)	(1,0)	(1,0)	(1,0)	(1,0)	(1,0)	
L1D 498>	(4,1)	(1,1)	(1,0)	(1,0)	(1,0)	(1,0)	(1,0)	(1,0)	(1,0)	(1,0)	(1,0)	(1,0)	(1,0)	(1,0)	(1,0)	(1,0)	
L1D 499>	(1,0)	(1,0)	(1,0)	(1,0)	(1,0)	(1,0)	(1,0)	(1,0)	(1,0)	(1,0)	(1,0)	(1,0)	(1,0)	(1,0)	(1,0)	(1,0)	
L1D 500>	(-488,1)	(1,0)	(1,0)	(1,0)	(1,0)	(1,0)	(1,0)	(1,0)	(1,0)	(1,0)	(1,0)	(1,0)	(1,0)	(1,0)	(1,0)	(1,0)	
L1D 501>	(4,1)	(1,0)	(1,0)	(1,0)	(1,0)	(1,0)	(1,0)	(1,0)	(1,0)	(1,0)	(1,0)	(1,0)	(1,0)	(1,0)	(1,0)	(1,0)	
L1D 502>	(1,1)	(0,1)	(1,0)	(1,0)	(1,0)	(1,0)	(1,0)	(1,0)	(1,0)	(1,0)	(1,0)	(1,0)	(1,0)	(1,0)	(1,0)	(1,0)	
L1D 503>	(4,1)	(1,0)	(1,0)	(1,0)	(1,0)	(1,0)	(1,0)	(1,0)	(1,0)	(1,0)	(1,0)	(1,0)	(1,0)	(1,0)	(1,0)	(1,0)	
L1D 504>	(1,0)	(1,0)	(1,0)	(1,0)	(1,0)	(1,0)	(1,0)	(1,0)	(1,0)	(1,0)	(1,0)	(1,0)	(1,0)	(1,0)	(1,0)	(1,0)	
L1D 505>	(1,0)	(1,0)	(1,0)	(1,0)	(1,0)	(1,0)	(1,0)	(1,0)	(1,0)	(1,0)	(1,0)	(1,0)	(1,0)	(1,0)	(1,0)	(1,0)	
L1D 506>	(0,1)	(1,0)	(1,0)	(1,0)	(1,0)	(1,0)	(1,0)	(1,0)	(1,0)	(1,0)	(1,0)	(1,0)	(1,0)	(1,0)	(1,0)	(1,0)	
L1D 507>	(1,0)	(1,0)	(1,0)	(1,0)	(1,0)	(1,0)	(1,0)	(1,0)	(1,0)	(1,0)	(1,0)	(1,0)	(1,0)	(1,0)	(1,0)	(1,0)	
L1D 508>	(1,0)	(1,0)	(1,0)	(1,0)	(1,0)	(1,0)	(1,0)	(1,0)	(1,0)	(1,0)	(1,0)	(1,0)	(1,0)	(1,0)	(1,0)	(1,0)	
L1D 509>	(1,0)	(1,0)	(1,0)	(1,0)	(1,0)	(1,0)	(1,0)	(1,0)	(1,0)	(1,0)	(1,0)	(1,0)	(1,0)	(1,0)	(1,0)	(1,0)	
L1D 510>	(1,0)	(1,0)	(1,0)	(1,0)	(1,0)	(1,0)	(1,0)	(1,0)	(1,0)	(1,0)	(1,0)	(1,0)	(1,0)	(1,0)	(1,0)	(1,0)	
L1D 511>	(1,0)	(1,0)	(1,0)	(1,0)	(1,0)	(1,0)	(1,0)	(1,0)	(1,0)	(1,0)	(1,0)	(1,0)	(1,0)	(1,0)	(1,0)	(1,0)	

L2C -64>	(1,138)	(2,32)	(11,5)	(7,5)	(-3,15)	(3,12)	(-4,10)	(-1,15)	(9,4)	(-2,30)	(0,2)	(4,4)	(-6,4)	(30,1)	(6,2)	(-5,20)	
L2C -63>	(0,2)	(1,3)	(15,1)	(11,1)	(14,1)	(1,0)	(1,0)	(1,0)	(1,0)	(1,0)	(1,0)	(1,0)	(1,0)	(1,0)	(1,0)	(1,0)	
L2C -62>	(1,4)	(18,2)	(2,2)	(-1,3)	(9,1)	(11,2)	(4,1)	(10,1)	(13,1)	(1,0)	(1,0)	(1,0)	(1,0)	(1,0)	(1,0)	(1,0)	
L2C -61>	(1,4)	(11,2)	(18,3)	(-1,1)	(2,1)	(14,1)	(7,1)	(6,1)	(43,1)	(1,0)	(1,0)	(1,0)	(1,0)	(1,0)	(1,0)	(1,0)	
L2C -60>	(-2,1)	(1,10)	(12,1)	(18,1)	(29,1)	(11,2)	(8,1)	(48,2)	(13,2)	(44,1)	(1,0)	(1,0)	(1,0)	(1,0)	(1,0)	(1,0)	
L2C -59>	(1,26)	(9,1)	(11,6)	(6,1)	(54,1)	(57,1)	(2,1)	(8,2)	(18,2)	(15,1)	(46,1)	(-1,1)	(3,1)	(1,0)	(1,0)	(1,0)	
L2C -58>	(11,33)	(1,9)	(8,2)	(9,5)	(12,1)	(2,3)	(43,1)	(3,1)	(34,1)	(18,1)	(6,1)	(41,1)	(22,4)	(-1,2)	(16,1)	(49,1)	
L2C -57>	(1,34)	(11,43)	(47,1)	(9,13)	(35,1)	(13,1)	(-1,2)	(15,1)	(2,3)	(22,5)	(7,3)	(57,1)	(44,2)	(0,4)	(56,1)	(53,1)	
L2C -56>	(11,241)	(1,7)	(12,1)	(0,2)	(9,6)	(22,33)	(2,1)	(33,7)	(55,2)	(32,1)	(8,0)	(-1,6)	(49,0)	(6,0)	(44,1)	(-3,0)	
L2C -55>	(1,18)	(9,2)	(10,55)	(12,2)	(-1,13)	(5,3)	(8,6)	(21,7)	(11,5)	(4,3)	(-2,1)	(32,2)	(43,2)	(14,11)	(13,2)	(18,1)	
L2C -54>	(7,1)	(2,6)	(50,3)	(8,4)	(1,17)	(51,2)	(4,6)	(39,1)	(-7,1)	(5,1)	(36,1)	(54,1)	(11,11)	(6,3)	(57,1)	(9,9)	
L2C -53>	(45,2)	(1,21)	(2,3)	(11,6)	(3,4)	(48,4)	(10,6)	(15,3)	(-1,2)	(8,6)	(9,2)	(20,1)	(13,1)	(31,2)	(26,1)	(-2,1)	
L2C -52>	(-2,1)	(51,4)	(1,15)	(2,4)	(26,1)	(11,5)	(-1,2)	(6,4)	(9,8)	(41,3)	(40,3)	(-3,2)	(48,1)	(7,2)	(3,1)	(38,1)	
L2C -51>	(1,35)	(4,9)	(48,3)	(-1,4)	(50,1)	(6,2)	(3,2)	(29,1)	(52,3)	(12,1)	(11,6)	(31,1)	(18,2)	(49,1)	(57,1)	(10,1)	
L2C -50>	(1,21)	(55,1)	(-1,8)	(0,2)	(37,2)	(34,1)	(51,7)	(-7,2)	(50,1)	(3,4)	(-5,1)	(12,1)	(47,3)	(11,6)	(10,2)	(4,1)	
L2C -49>	(16,5)	(7,2)	(2,6)	(1,33)	(-10,1)	(-1,4)	(3,3)	(4,11)	(23,1)	(62,1)	(11,4)	(27,1)	(43,1)	(-4,1)	(18,1)	(33,1)	
L2C -48>	(1,36)	(8,4)	(49,6)	(0,5)	(4,3)	(48,18)	(11,13)	(7,1)	(46,2)	(-1,6)	(9,2)	(25,1)	(-8,1)	(33,1)	(-4,3)	(2,2)	
L2C -47>	(22,2)	(14,3)	(11,34)	(1,41)	(-4,3)	(4,3)	(2,5)	(0,4)	(47,6)	(41,2)	(51,2)	(7,5)	(48,1)	(-11,2)	(20,1)	(40,1)	
L2C -46>	(33,2)	(11,53)	(1,33)	(44,6)	(-5,2)	(2,5)	(22,7)	(-1,10)	(-10,3)	(-3,1)	(51,1)	(59,1)	(25,2)	(52,1)	(-11,1)	(4,6)	
L2C -45>	(11,198)	(-1,5)	(22,30)	(24,1)	(8,1)	(1,11)	(2,3)	(13,3)	(37,2)	(33,2)	(7,1)	(0,2)	(44,3)	(-12,1)	(45,1)	(9,1)	
L2C -44>	(40,6)	(1,42)	(7,8)	(2,25)	(14,7)	(43,2)	(6,4)	(44,14)	(-11,10)	(10,90)	(11,12)	(21,5)	(25,2)	(-1,2)	(-5,1)	(12,3)	
L2C -43>	(1,56)	(0,3)	(3,5)	(-3,4)	(-1,10)	(45,3)	(28,4)	(2,1)	(11,16)	(48,1)	(49,1)	(-15,1)	(22,2)	(27,3)	(9,1)	(20,2)	
L2C -42>	(1,35)	(42,5)	(43,11)	(0,2)	(3,5)	(44,3)	(5,4)	(2,14)	(9,1)	(52,2)	(10,8)	(11,5)	(21,1)	(-3,6)	(40,3)	(-1,3)	
L2C -41>	(1,54)	(9,12)	(37,45)	(2,15)	(-3,5)	(43,34)	(0,17)	(39,7)	(41,11)	(12,1)	(-8,2)	(11,9)	(15,1)	(-1,8)	(13,2)	(4,5)	
L2C -40>	(1,22)	(44,2)	(-3,3)	(2,17)	(43,27)	(42,7)	(11,3)	(6,3)	(33,6)	(41,26)	(-1,10)	(36,2)	(4,6)	(31,1)	(45,1)	(0,2)	
L2C -39>	(1,29)	(39,6)	(2,30)	(11,6)	(7,4)	(-9,2)	(-2,1)	(40,17)	(3,7)	(27,2)	(-11,3)	(22,3)	(37,11)	(45,1)	(-1,7)	(44,1)	
L2C -38>	(1,31)	(39,24)	(2,24)	(-7,2)	(38,1)	(18,6)	(-2,5)	(-16,1)	(3,9)	(40,5)	(-17,1)	(-11,2)	(13,2)	(0,4)	(6,2)	(-1,5)	
L2C -37>	(2,17)	(0,17)	(33,3)	(13,9)	(14,2)	(42,3)	(1,49)	(3,10)	(-1,9)	(12,2)	(11,14)	(41,6)	(-10,1)	(51,2)	(-2,8)	(47,2)	
L2C -36>	(39,4)	(1,55)	(42,3)	(38,2)	(40,3)	(0,7)	(2,17)	(9,1)	(-3,3)	(41,7)	(7,3)	(-1,5)	(24,1)	(3,12)	(11,31)	(23,5)	
L2C -35>	(7,8)	(1,56)	(11,33)	(-3,5)	(36,7)	(13,4)	(41,5)	(5,4)	(38,8)	(0,2)	(2,24)	(8,3)	(33,4)	(26,4)	(22,3)	(3,1)	
L2C -34>	(1,17)	(3,3)	(7,2)	(-2,1)	(21,1)	(10,1)	(11,158)	(33,2)	(-3,1)	(14,1)	(41,1)	(2,10)	(-1,2)	(35,3)	(22,29)	(0,1)	
L2C -33>	(1,52)	(3,26)	(34,5)	(2,74)	(11,30)	(32,6)	(10,55)	(28,3)	(33,7)	(-1,17)	(31,5)	(6,3)	(14,8)	(24,1)	(-11,11)	(-2,3)	
L2C -32>	(1,84)	(3,27)	(19,5)	(5,8)	(8,4)	(-5,1)	(2,57)	(33,4)	(37,4)	(34,3)	(7,5)	(0,4)	(10,6)	(11,9)	(6,5)	(31,3)	
L2C -31>	(1,74)	(2,37)	(-1,17)	(5,4)	(6,5)	(-2,5)	(32,11)	(8,4)	(10,17)	(0,6)	(11,6)	(-11,3)	(3,28)	(9,1)	(22,3)	(12,2)	
L2C -30>	(9,9)	(1,57)	(31,11)	(12,7)	(3,25)	(4,3)	(29,3)	(-1,18)	(2,53)	(16,5)	(-2,4)	(11,6)	(34,1)	(43,1)	(0,5)	(-4,7)	
L2C -29>	(1,93)	(40,3)	(3,23)	(2,77)	(-1,24)	(-3,4)	(7,5)	(28,2)	(30,13)	(18,4)	(-5,2)	(25,2)	(29,8)	(-4,4)	(27,6)	(17,1)	
L2C -28>	(2,27)	(11,8)	(1,68)	(-3,5)	(29,15)	(7,4)	(-2,9)	(-16,1)	(10,4)	(3,20)	(-1,23)	(33,3)	(4,8)	(8,5)	(0,2)	(-10,4)	
L2C -27>	(6,9)	(3,32)	(28,12)	(30,5)	(9,1)	(8,9)	(27,10)	(1,104)	(4,7)	(10,13)	(-1,33)	(0,9)	(25,3)	(-2,11)	(2,41)	(22,3)	
L2C -26>	(10,16)	(3,10)	(-1,30)	(-2,15)	(2,18)	(36,10)	(24,4)	(1,73)	(25,1)	(8,8)	(27,4)	(13,6)	(-5,4)	(38,3)	(30,5)	(11,11)	
L2C -25>	(13,6)	(1,63)	(2,42)	(10,11)	(0,8)	(6,8)	(-1,22)	(11,37)	(9,5)	(-2,10)	(17,3)	(26,7)	(8,6)	(21,5)	(15,1)	(-10,3)	
L2C -24>	(39,1)	(3,17)	(23,8)	(25,15)	(8,5)	(-1,38)	(21,6)	(-17,3)	(1,91)	(-3,5)	(-2,16)	(4,14)	(6,3)	(11,21)	(0,9)	(32,3)	
L2C -23>	(2,10)	(1,28)	(22,22)	(48,0)	(-1,19)	(-2,5)	(24,5)	(6,4)	(4,2)	(13,2)	(21,1)	(11,129)	(-16,2)	(53,1)	(-4,3)	(18,4)	
L2C -22>	(23,12)	(1,68)	(-11,9)	(21,18)	(-3,10)	(10,98)	(5,11)	(3,10)	(-1,51)	(20,7)	(11,18)	(33,11)	(-2,8)	(7,7)	(4,12)	(25,1)	
L2C -21>	(2,17)	(18,11)	(-2,27)	(8,15)	(10,8)	(5,10)	(1,75)	(-1,34)	(-4,7)	(-3,8)	(11,29)	(4,1)	(22,8)	(-11,2)	(9,9)	(7,11)	
L2C -20>	(15,1)	(16,9)	(-7,16)	(1,66)	(13,6)	(8,7)	(-1,27)	(4,13)	(5,17)	(-4,10)	(14,4)	(17,9)	(11,24)	(2,15)	(21,10)	(9,6)	
L2C -19>	(1,123)	(7,7)	(0,9)	(3,61)	(5,8)	(-1,63)	(-5,13)	(11,11)	(2,51)	(20,22)	(13,7)	(-3,11)	(15,1)	(-7,4)	(10,13)	(-2,16)	
L2C -18>	(1,207)	(25,6)	(18,4)	(26,5)	(0,15)	(27,9)	(-7,4)	(2,31)	(-1,24)	(19,47)	(17,2)	(5,10)	(16,18)	(-2,37)	(6,7)	(3,11)	
L2C -17>	(23,4)	(1,135)	(-5,2)	(18,23)	(-1,2)	(2,20)	(4,3)	(19,9)	(-2,26)	(28,2)	(25,2)	(24,1)	(22,2)	(3,5)	(-3,4)	(5,3)	
L2C -16>	(1,196)	(16,45)	(-6,11)	(10,17)	(0,77)	(3,122)	(-3,18)	(4,1)	(2,132)	(17,20)	(11,15)	(-1,41)	(9,9)	(-2,14)	(15,14)	(5,13)	
L2C -15>	(1,156)	(2,54)	(59,1)	(4,15)	(10,29)	(-3,10)	(16,11)	(7,18)	(-1,41)	(6,16)	(-6,5)	(18,15)	(-2,20)	(3,25)	(11,21)	(5,14)	
L2C -14>	(0,56)	(9,8)	(1,188)	(16,11)	(-1,119)	(-2,20)	(4,12)	(2,123)	(13,20)	(3,45)	(8,15)	(-5,1)	(11,40)	(-3,14)	(15,17)	(6,9)	
L2C -13>	(14,41)	(1,214)	(2,89)	(13,72)	(24,16)	(9,17)	(-1,76)	(6,17)	(4,19)	(0,17)	(5,29)	(12,26)	(10,13)	(-2,28)	(-16,1)	(-13,3)	
L2C -12>	(1,139)	(11,162)	(3,39)	(-3,8)	(2,21)	(22,5)	(13,8)	(4,14)	(-2,6)	(5,20)	(8,8)	(9,11)	(10,11)	(-1,34)	(20,1)	(6,7)	
L2C -11>	(13,9)	(1,155)	(10,139)	(7,21)	(17,17)	(-2,43)	(2,254)	(-11,21)	(4,61)	(3,136)	(-9,1)	(42,3)	(9,60)	(12,43)	(-1,71)	(5,41)	
L2C -10>	(14,15)	(5,37)	(1,211)	(9,30)	(3,31)	(-4,13)	(-17,1)	(0,40)	(-2,40)	(2,49)	(10,23)	(-1,50)	(11,52)	(-6,15)	(6,26)	(21,7)	
L2C -9>	(2,68)	(1,163)	(11,14)	(-6,8)	(-2,30)	(14,9)	(10,43)	(6,55)	(-1,75)	(4,30)	(5,28)	(-3,14)	(9,6)	(3,3)	(8,19)	(0,28)	
L2C -8>	(1,209)	(10,25)	(6,20)	(-3,14)	(5,30)	(9,40)	(8,10)	(3,75)	(17,5)	(-2,13)	(-1,75)	(7,12)	(11,15)	(28,1)	(4,47)	(2,57)	
L2C -7>	(6,21)	(2,218)	(-1,56)	(-5,3)	(1,171)	(5,44)	(3,42)	(10,7)	(-4,3)	(9,131)	(0,20)	(4,15)	(-3,13)	(-19,1)	(11,5)	(8,14)	
L2C -6>	(2,50)	(1,168)	(13,4)	(-11,4)	(4,61)	(5,29)	(9,19)	(6,41)	(8,25)	(0,43)	(-3,12)	(-2,2)	(7,24)	(10,9)	(-1,68)	(3,31)	
L2C -5>	(1,150)	(10,27)	(-2,103)	(-21,1)	(3,30)	(5,28)	(-3,51)	(2,83)	(-6,31)	(-1,67)	(11,8)	(6,53)	(-5,14)	(-4,23)	(0,19)	(4,38)	
L2C -4>	(1,143)	(2,77)	(-2,26)	(6,32)	(4,13)	(-1,67)	(5,72)	(3,39)	(-23,1)	(0,25)	(10,15)	(-4,23)	(-5,15)	(11,5)	(-3,45)	(7,12)	
L2C -3>	(4,125)	(1,251)	(-2,32)	(-3,22)	(-32,4)	(0,39)	(-1,107)	(2,113)	(3,38)	(11,11)	(5,79)	(-4,21)	(22,53)	(8,26)	(-7,6)	(10,1)	
L2C -2>	(50,1)	(6,7)	(-1,107)	(4,29)	(-2,14)	(1,173)	(3,37)	(-3,11)	(30,2)	(5,18)	(7,2)	(0,207)	(2,26)	(18,13)	(-4,5)	(-5,9)	
L2C -1>	(-1,86)	(1,57)	(0,33)	(3,67)	(-3,15)	(-6,5)	(-2,23)	(11,5)	(4,16)	(2,160)	(9,1)	(5,10)	(17,1)	(-4,8)	(10,2)	(-5,6)	
L2C 0>	(8,1)	(0,216)	(1,10)	(-1,61)	(7,1)	(-2,2)	(-3,2)	(-5,1)	(-4,3)	(2,2)	(-6,1)	(4,0)	(5,0)	(36,0)	(-19,0)	(3,1)	
L2C 1>	(1,251)	(18,0)	(-53,0)	(10,0)	(21,0)	(-4,0)	(-6,0)	(2,28)	(47,0)	(-2,0)	(-1,1)	(-7,0)	(55,0)	(-20,0)	(5,0)	(3,6)	
L2C 2>	(9,1)	(1,182)	(-1,18)	(2,40)	(0,4)	(18,4)	(-41,1)	(7,1)	(-3,9)	(-51,0)	(8,2)	(19,0)	(4,3)	(-2,0)	(14,0)	(3,20)	
L2C 3>	(1,232)	(-8,1)	(-12,1)	(-1,43)	(-4,17)	(-3,4)	(2,116)	(-2,6)	(4,10)	(3,62)	(46,1)	(-6,5)	(33,1)	(32,1)	(29,2)	(0,6)	
L2C 4>	(1,211)	(3,70)	(-4,11)	(-8,5)	(-2,36)	(2,81)	(0,4)	(-5,8)	(-6,6)	(-9,5)	(-3,46)	(21,1)	(-1,25)	(-7,3)	(4,62)	(5,14)	
L2C 5>	(1,204)	(4,20)	(3,28)	(5,22)	(-1,57)	(-2,62)	(-3,105)	(0,18)	(-5,21)	(2,56)	(30,1)	(-6,24)	(-8,22)	(-4,56)	(7,5)	(-11,8)	
L2C 6>	(-2,40)	(1,156)	(6,10)	(-5,63)	(-9,13)	(-6,26)	(-4,1)	(-23,5)	(-7,29)	(-12,6)	(11,7)	(2,36)	(-1,79)	(-3,39)	(3,37)	(0,39)	
L2C 7>	(1,234)	(-4,237)	(-1,200)	(-6,80)	(2,78)	(-7,23)	(5,34)	(14,44)	(-16,14)	(-5,145)	(3,141)	(6,27)	(-3,51)	(0,18)	(19,1)	(-2,54)	
L2C 8>	(-3,17)	(-9,39)	(1,193)	(-4,60)	(2,69)	(19,1)	(-2,36)	(-11,10)	(11,12)	(24,6)	(-1,42)	(-5,149)	(-6,29)	(5,11)	(6,8)	(-7,32)	
L2C 9>	(11,147)	(1,249)	(3,2)	(-4,114)	(-11,26)	(-6,20)	(-8,83)	(2,58)	(19,6)	(-10,24)	(5,11)	(-21,7)	(-1,46)	(-2,35)	(-7,178)	(-5,88)	
L2C 10>	(11,235)	(1,213)	(3,70)	(-10,1)	(-6,18)	(-11,79)	(6,13)	(5,12)	(-9,59)	(-4,91)	(-12,20)	(2,47)	(-1,62)	(-21,4)	(-5,176)	(-14,11)	
L2C 11>	(-1,3)	(-22,2)	(11,253)	(1,4)	(-44,5)	(-23,15)	(-34,22)	(-56,25)	(-33,4)	(-45,21)	(16,1)	(-55,1)	(22,10)	(-12,15)	(2,1)	(-10,1)	
L2C 12>	(1,172)	(-14,12)	(-11,47)	(-5,74)	(-20,11)	(5,19)	(17,1)	(-4,28)	(-10,13)	(-13,38)	(-7,18)	(-1,79)	(2,63)	(-18,6)	(11,34)	(-30,8)	
L2C 13>	(-12,42)	(-13,51)	(1,180)	(-1,49)	(18,6)	(2,33)	(-5,22)	(-4,21)	(-15,14)	(-14,48)	(-9,35)	(11,10)	(-22,9)	(4,34)	(0,29)	(-11,2)	
L2C 14>	(-15,21)	(-13,25)	(1,151)	(-2,23)	(5,7)	(13,12)	(2,43)	(-1,38)	(-5,17)	(-12,25)	(-16,20)	(0,16)	(-4,27)	(-6,8)	(-55,1)	(9,34)	
L2C 15>	(-16,16)	(-14,25)	(2,28)	(1,128)	(-26,1)	(-18,6)	(-10,12)	(-5,29)	(-24,11)	(-25,4)	(-9,16)	(-1,35)	(-4,27)	(-2,12)	(6,7)	(3,16)	
L2C 16>	(1,115)	(5,11)	(6,6)	(-11,12)	(-16,67)	(2,71)	(-9,7)	(-17,28)	(-10,9)	(0,19)	(-8,3)	(3,15)	(-1,21)	(-15,13)	(33,1)	(-21,9)	
L2C 17>	(2,27)	(-1,34)	(-3,11)	(1,133)	(-17,23)	(-16,68)	(-18,53)	(-29,7)	(6,10)	(-22,1)	(4,15)	(-13,12)	(-4,9)	(-12,11)	(-15,11)	(-2,9)	
L2C 18>	(-17,219)	(-16,9)	(-13,1)	(1,7)	(-1,7)	(-22,1)	(-2,2)	(11,1)	(-10,1)	(-11,3)	(6,1)	(4,1)	(-29,1)	(2,2)	(3,4)	(19,3)	
L2C 19>	(-29,1)	(2,44)	(-20,10)	(-16,35)	(-15,3)	(-18,204)	(1,95)	(-25,8)	(-1,114)	(-2,6)	(-14,7)	(-27,9)	(-17,32)	(-34,3)	(-5,3)	(-3,5)	
L2C 20>	(-1,33)	(-18,31)	(-21,1)	(-19,21)	(1,89)	(-17,45)	(-14,4)	(-28,3)	(2,13)	(3,22)	(11,30)	(-27,14)	(-16,43)	(-3,4)	(-15,6)	(-23,14)	
L2C 21>	(1,93)	(2,22)	(10,1)	(-19,21)	(-18,12)	(-26,3)	(4,8)	(3,20)	(-5,6)	(-1,17)	(-24,4)	(21,3)	(-17,12)	(11,34)	(-10,6)	(-23,9)	
L2C 22>	(1,28)	(-34,4)	(-18,137)	(-1,17)	(-4,5)	(-33,4)	(11,159)	(-12,1)	(-56,31)	(2,7)	(-17,7)	(-44,4)	(22,8)	(-23,18)	(-43,2)	(-45,8)	
L2C 23>	(1,99)	(-1,25)	(-18,19)	(2,20)	(-11,9)	(3,6)	(-22,7)	(4,1)	(-16,6)	(-28,6)	(-12,9)	(-20,6)	(11,7)	(-17,5)	(-2,6)	(-14,6)	
L2C 24>	(-21,14)	(-1,32)	(0,3)	(1,80)	(-30,5)	(3,13)	(11,7)	(-15,6)	(-27,11)	(-33,4)	(-23,15)	(-4,1)	(-13,16)	(-24,8)	(-12,8)	(-2,9)	
L2C 25>	(-23,10)	(-9,4)	(1,79)	(-4,8)	(-24,16)	(0,10)	(-27,5)	(-3,6)	(-19,4)	(-1,20)	(6,5)	(-15,2)	(10,2)	(2,18)	(-7,8)	(-13,1)	
L2C 26>	(1,83)	(-5,14)	(-3,4)	(-25,14)	(-51,1)	(-15,19)	(-22,9)	(11,7)	(-32,7)	(-11,3)	(-2,9)	(-4,10)	(4,8)	(2,5)	(3,12)	(-1,20)	
L2C 27>	(-16,10)	(-29,9)	(-5,7)	(-1,26)	(1,83)	(-32,1)	(-2,8)	(-22,7)	(10,4)	(-36,2)	(-26,22)	(2,20)	(0,6)	(-27,16)	(-41,4)	(-9,4)	
L2C 28>	(-17,20)	(3,4)	(1,98)	(-51,2)	(-27,25)	(2,6)	(-22,4)	(-4,10)	(-34,5)	(-24,4)	(-23,1)	(-11,4)	(-26,8)	(-14,4)	(-3,4)	(-1,32)	
L2C 29>	(1,82)	(-26,6)	(2,9)	(-27,15)	(-28,10)	(-29,8)	(-3,5)	(3,10)	(-4,9)	(-41,3)	(-11,1)	(11,2)	(-1,31)	(5,6)	(-30,6)	(24,1)	
L2C 30>	(-25,6)	(-26,8)	(-29,12)	(-32,10)	(-1,27)	(-22,1)	(2,11)	(1,83)	(-28,12)	(3,2)	(-33,4)	(-23,5)	(-21,2)	(-35,2)	(6,2)	(-5,8)	
L2C 31>	(-2,4)	(1,73)	(-9,2)	(-26,6)	(11,4)	(-29,7)	(-5,8)	(-4,4)	(-32,6)	(-1,14)	(-23,2)	(-3,1)	(4,6)	(-30,9)	(2,19)	(20,1)	
L2C 32>	(2,14)	(1,74)	(-29,5)	(-4,5)	(3,6)	(-31,9)	(-33,4)	(-34,3)	(16,2)	(-1,21)	(-32,5)	(11,4)	(-8,1)	(-12,2)	(-9,3)	(-46,2)	
L2C 33>	(1,62)	(2,12)	(-31,1)	(-34,9)	(-3,4)	(3,16)	(5,2)	(11,51)	(-32,11)	(0,3)	(-56,10)	(-18,2)	(-8,2)	(-27,6)	(-1,14)	(-26,12)	
L2C 34>	(1,65)	(2,20)	(-29,7)	(-31,3)	(-1,9)	(3,3)	(-27,7)	(-3,5)	(5,2)	(-11,3)	(-9,3)	(-17,1)	(-14,2)	(-23,4)	(-35,6)	(-28,4)	
L2C 35>	(1,60)	(2,34)	(3,12)	(-34,5)	(7,2)	(-17,19)	(-27,3)	(-3,6)	(-1,3)	(-23,5)	(-5,3)	(-29,1)	(-36,3)	(0,2)	(-14,1)	(-35,5)	
L2C 36>	(1,57)	(2,15)	(-34,3)	(-9,3)	(3,2)	(-31,3)	(-1,11)	(-11,4)	(-21,2)	(-6,5)	(-26,5)	(-20,3)	(-35,5)	(-37,1)	(-18,7)	(14,1)	
L2C 37>	(2,23)	(-28,16)	(-38,1)	(-55,2)	(-56,2)	(1,50)	(11,2)	(-40,7)	(-7,16)	(-37,3)	(7,2)	(-50,2)	(-4,2)	(-3,3)	(-1,6)	(-2,2)	
L2C 38>	(2,17)	(1,22)	(0,4)	(-1,7)	(-3,2)	(-54,2)	(-8,2)	(-36,5)	(-41,2)	(-23,2)	(-17,9)	(-51,1)	(-27,2)	(-31,2)	(-26,1)	(4,4)	
L2C 39>	(1,36)	(17,7)	(-27,2)	(-1,8)	(-32,3)	(-28,6)	(-39,12)	(2,19)	(-48,3)	(3,6)	(-17,3)	(11,3)	(-40,1)	(0,3)	(-12,1)	(-43,1)	
L2C 40>	(4,4)	(1,68)	(2,14)	(-17,3)	(-39,9)	(3,3)	(-33,3)	(-28,2)	(-54,2)	(-1,15)	(-42,6)	(-9,1)	(-34,1)	(11,5)	(-36,1)	(-21,2)	
L2C 41>	(2,26)	(1,89)	(-42,9)	(-32,1)	(-33,2)	(-39,5)	(-1,6)	(-34,4)	(-12,1)	(4,8)	(0,20)	(-43,4)	(11,3)	(-11,1)	(3,11)	(-24,1)	
L2C 42>	(-40,11)	(-1,11)	(1,52)	(-44,3)	(-42,3)	(2,6)	(-23,2)	(-5,3)	(-12,2)	(-17,2)	(-37,2)	(0,12)	(-43,7)	(-41,3)	(-22,4)	(-38,1)	
L2C 43>	(2,31)	(-41,45)	(-9,2)	(-44,5)	(-42,7)	(1,26)	(-39,10)	(-26,2)	(-34,4)	(11,4)	(-1,13)	(-13,1)	(-38,3)	(-52,3)	(-10,3)	(7,1)	
L2C 44>	(1,29)	(-43,4)	(-1,8)	(-44,3)	(0,14)	(-45,11)	(-49,4)	(-14,3)	(-33,9)	(11,10)	(-56,2)	(2,9)	(-50,2)	(-4,5)	(-2,2)	(3,1)	
L2C 45>	(1,23)	(2,13)	(-4,3)	(-47,3)	(-38,3)	(-22,2)	(11,3)	(-3,6)	(-45,4)	(-2,1)	(-25,1)	(-18,2)	(5,2)	(-23,1)	(-12,2)	(-7,1)	
L2C 46>	(-25,1)	(1,31)	(-45,5)	(2,7)	(-49,1)	(-43,1)	(-48,4)	(-47,6)	(-30,2)	(-37,1)	(-39,3)	(-36,2)	(-4,1)	(0,3)	(-52,3)	(-1,3)	
L2C 47>	(1,26)	(-38,5)	(-52,3)	(-46,7)	(-40,1)	(-39,2)	(10,2)	(-33,3)	(-47,2)	(-23,2)	(2,5)	(-17,2)	(3,5)	(-12,2)	(-48,7)	(-43,2)	
L2C 48>	(-51,9)	(1,32)	(2,6)	(-45,9)	(-50,3)	(-53,2)	(11,2)	(-48,18)	(0,2)	(-27,2)	(-60,3)	(-52,2)	(-42,3)	(-47,17)	(-23,1)	(-40,4)	
L2C 49>	(-43,7)	(1,39)	(0,2)	(-48,9)	(-51,3)	(2,9)	(-29,3)	(-3,2)	(-50,1)	(-42,2)	(-44,2)	(-52,2)	(-16,1)	(-45,11)	(5,1)	(-46,1)	
L2C 50>	(1,30)	(-49,7)	(-13,4)	(-1,2)	(-19,2)	(4,3)	(-47,1)	(-6,2)	(-45,3)	(-44,2)	(2,8)	(-36,3)	(-27,1)	(5,1)	(-51,2)	(-37,1)	
L2C 51>	(-19,2)	(-53,6)	(-43,2)	(1,31)	(-7,2)	(-50,9)	(-58,3)	(-41,2)	(-47,9)	(-33,2)	(-45,2)	(-46,1)	(2,7)	(-23,3)	(-11,1)	(-52,4)	
L2C 52>	(1,34)	(-51,3)	(-4,1)	(-50,5)	(3,4)	(-31,1)	(-47,3)	(-55,2)	(-53,10)	(-44,1)	(-33,1)	(-5,1)	(-54,4)	(-19,1)	(-8,1)	(-20,3)	
L2C 53>	(1,20)	(0,2)	(-52,3)	(-45,1)	(3,1)	(-48,1)	(-24,1)	(-42,2)	(2,3)	(-44,1)	(-56,1)	(-32,1)	(-23,1)	(-26,1)	(-2,1)	(-53,1)	
L2C 54>	(1,8)	(3,2)	(-2,1)	(-36,1)	(-3,1)	(-56,2)	(-1,4)	(-11,1)	(-54,1)	(-41,1)	(2,1)	(-20,2)	(-49,1)	(-55,2)	(-45,1)	(-34,1)	
L2C 55>	(1,33)	(0,16)	(-1,3)	(-44,2)	(-41,1)	(-57,2)	(2,1)	(-56,2)	(-13,1)	(-54,1)	(-53,1)	(-45,2)	(-30,1)	(1,0)	(1,0)	(1,0)	
L2C 56>	(1,8)	(-1,2)	(-9,1)	(-35,1)	(3,1)	(5,1)	(-20,2)	(-58,2)	(-42,1)	(-52,1)	(-36,1)	(-2,2)	(-4,1)	(-54,2)	(-19,1)	(-10,1)	
L2C 57>	(0,1)	(-39,2)	(-46,1)	(1,6)	(-51,1)	(-57,2)	(-45,1)	(-1,1)	(-53,1)	(-28,1)	(1,0)	(1,0)	(1,0)	(1,0)	(1,0)	(1,0)	
L2C 58>	(1,6)	(-1,2)	(-30,1)	(-47,2)	(-58,1)	(-10,1)	(-9,1)	(1,0)	(1,0)	(1,0)	(1,0)	(1,0)	(1,0)	(1,0)	(1,0)	(1,0)	
L2C 59>	(1,3)	(-44,1)	(-2,1)	(-8,1)	(-63,1)	(-1,4)	(-40,1)	(-16,1)	(-56,1)	(-12,1)	(1,0)	(1,0)	(1,0)	(1,0)	(1,0)	(1,0)	
L2C 60>	(-26,1)	(-1,2)	(1,2)	(-54,1)	(-7,1)	(1,0)	(1,0)	(1,0)	(1,0)	(1,0)	(1,0)	(1,0)	(1,0)	(1,0)	(1,0)	(1,0)	
L2C 61>	(-60,2)	(-50,2)	(2,1)	(-31,1)	(-5,1)	(-12,1)	(1,0)	(1,0)	(1,0)	(1,0)	(1,0)	(1,0)	(1,0)	(1,0)	(1,0)	(1,0)	
L2C 62>	(1,1)	(-60,1)	(-29,1)	(-58,1)	(-20,1)	(-6,1)	(1,0)	(1,0)	(1,0)	(1,0)	(1,0)	(1,0)	(1,0)	(1,0)	(1,0)	(1,0)	
L2C 63>	(-44,1)	(1,0)	(1,0)	(1,0)	(1,0)	(1,0)	(1,0)	(1,0)	(1,0)	(1,0)	(1,0)	(1,0)	(1,0)	(1,0)	(1,0)	(1,0)	

DRAM Statistics
 CHANNEL 0
 RQ ROW_BUFFER_HIT:     341303  ROW_BUFFER_MISS:     948907
 DBUS_CONGESTED:     790277
 WQ ROW_BUFFER_HIT:      28514  ROW_BUFFER_MISS:     317062  FULL:          0

 AVG_CONGESTED_CYCLE: 6
