Initialize SIGNATURE TABLE
ST_SET: 1
ST_WAY: 256
ST_TAG_BIT: 16
ST_TAG_MASK: ffff

Initialize PATTERN TABLE
PT_SET: 512
PT_WAY: 4
SIG_DELTA_BIT: 7
C_SIG_BIT: 4
C_DELTA_BIT: 4

Initialize PREFETCH FILTER
FILTER_SET: 1024

*** ChampSim Multicore Out-of-Order Simulator ***

Warmup Instructions: 1000000
Simulation Instructions: 10000000
Number of CPUs: 4
LLC sets: 8192
LLC ways: 16
Off-chip DRAM Size: 4096 MB Channels: 1 Width: 64-bit Data Rate: 3200 MT/s

CPU 0 runs /home/virtualcse/Data-Prefetching/ChampSim/dpc3_traces/654.roms_s-1070B.champsimtrace.xz
CPU 1 runs /home/virtualcse/Data-Prefetching/ChampSim/dpc3_traces/625.x264_s-18B.champsimtrace.xz
CPU 2 runs /home/virtualcse/Data-Prefetching/ChampSim/dpc3_traces/620.omnetpp_s-141B.champsimtrace.xz
CPU 3 runs /home/virtualcse/Data-Prefetching/ChampSim/dpc3_traces/600.perlbench_s-1273B.champsimtrace.xz

Warmup complete CPU 0 instructions: 1159118 cycles: 539053 (Simulation time: 0 hr 0 min 11 sec) 
Warmup complete CPU 1 instructions: 1591326 cycles: 539053 (Simulation time: 0 hr 0 min 11 sec) 
Warmup complete CPU 2 instructions: 1000001 cycles: 539053 (Simulation time: 0 hr 0 min 11 sec) 
Warmup complete CPU 3 instructions: 1395739 cycles: 539052 (Simulation time: 0 hr 0 min 11 sec) 

Heartbeat CPU 1 instructions: 10000000 cycles: 4825136 heartbeat IPC: 2.07248 cumulative IPC: 1.96186 (Simulation time: 0 hr 0 min 47 sec) 
Finished CPU 1 instructions: 10000002 cycles: 5144419 cumulative IPC: 1.94385 (Simulation time: 0 hr 0 min 55 sec) 
Heartbeat CPU 3 instructions: 10000000 cycles: 5731538 heartbeat IPC: 1.74473 cumulative IPC: 1.65706 (Simulation time: 0 hr 0 min 55 sec) 
Finished CPU 3 instructions: 10000000 cycles: 6084659 cumulative IPC: 1.64348 (Simulation time: 0 hr 1 min 3 sec) 
Heartbeat CPU 0 instructions: 10000002 cycles: 8026576 heartbeat IPC: 1.24586 cumulative IPC: 1.18075 (Simulation time: 0 hr 1 min 14 sec) 
Finished CPU 0 instructions: 10000000 cycles: 8399312 cumulative IPC: 1.19057 (Simulation time: 0 hr 1 min 21 sec) 
Heartbeat CPU 1 instructions: 20000001 cycles: 10219097 heartbeat IPC: 1.85393 cumulative IPC: 1.90171 (Simulation time: 0 hr 1 min 32 sec) 
Heartbeat CPU 3 instructions: 20000000 cycles: 12367596 heartbeat IPC: 1.50692 cumulative IPC: 1.57283 (Simulation time: 0 hr 1 min 49 sec) 
Heartbeat CPU 1 instructions: 30000003 cycles: 15396357 heartbeat IPC: 1.93152 cumulative IPC: 1.9121 (Simulation time: 0 hr 2 min 16 sec) 
Heartbeat CPU 0 instructions: 20000002 cycles: 16163442 heartbeat IPC: 1.22897 cumulative IPC: 1.20586 (Simulation time: 0 hr 2 min 23 sec) 
Heartbeat CPU 3 instructions: 30000002 cycles: 17408089 heartbeat IPC: 1.98393 cumulative IPC: 1.69567 (Simulation time: 0 hr 2 min 35 sec) 
Heartbeat CPU 1 instructions: 40000001 cycles: 20186047 heartbeat IPC: 2.08782 cumulative IPC: 1.95494 (Simulation time: 0 hr 3 min 0 sec) 
Heartbeat CPU 3 instructions: 40000002 cycles: 23579543 heartbeat IPC: 1.62036 cumulative IPC: 1.6755 (Simulation time: 0 hr 3 min 27 sec) 
Heartbeat CPU 0 instructions: 30000001 cycles: 24448673 heartbeat IPC: 1.20697 cumulative IPC: 1.20625 (Simulation time: 0 hr 3 min 33 sec) 
Heartbeat CPU 1 instructions: 50000002 cycles: 25164067 heartbeat IPC: 2.00883 cumulative IPC: 1.96583 (Simulation time: 0 hr 3 min 39 sec) 
Heartbeat CPU 3 instructions: 50000001 cycles: 29751852 heartbeat IPC: 1.62014 cumulative IPC: 1.6638 (Simulation time: 0 hr 4 min 17 sec) 
Heartbeat CPU 1 instructions: 60000000 cycles: 30209188 heartbeat IPC: 1.98211 cumulative IPC: 1.9686 (Simulation time: 0 hr 4 min 22 sec) 
Heartbeat CPU 0 instructions: 40000002 cycles: 32867673 heartbeat IPC: 1.18779 cumulative IPC: 1.20144 (Simulation time: 0 hr 4 min 45 sec) 
Heartbeat CPU 3 instructions: 60000001 cycles: 35181213 heartbeat IPC: 1.84184 cumulative IPC: 1.6917 (Simulation time: 0 hr 5 min 7 sec) 
Heartbeat CPU 1 instructions: 70000001 cycles: 35310802 heartbeat IPC: 1.96016 cumulative IPC: 1.96736 (Simulation time: 0 hr 5 min 8 sec) 
Heartbeat CPU 2 instructions: 10000000 cycles: 39982400 heartbeat IPC: 0.25011 cumulative IPC: 0.228175 (Simulation time: 0 hr 5 min 49 sec) 
Heartbeat CPU 1 instructions: 80000003 cycles: 40116766 heartbeat IPC: 2.08075 cumulative IPC: 1.98113 (Simulation time: 0 hr 5 min 51 sec) 
Heartbeat CPU 0 instructions: 50000002 cycles: 40521806 heartbeat IPC: 1.30648 cumulative IPC: 1.22155 (Simulation time: 0 hr 5 min 54 sec) 
Heartbeat CPU 3 instructions: 70000003 cycles: 41583223 heartbeat IPC: 1.56201 cumulative IPC: 1.67147 (Simulation time: 0 hr 6 min 3 sec) 
Finished CPU 2 instructions: 10000000 cycles: 43416482 cumulative IPC: 0.230327 (Simulation time: 0 hr 6 min 21 sec) 

CPU 0 Branch Prediction Accuracy: 99.8774% MPKI: 0.0658858 Average ROB Occupancy at Mispredict: 347.227

CPU 1 Branch Prediction Accuracy: 97.5266% MPKI: 0.894629 Average ROB Occupancy at Mispredict: 235.168

CPU 2 Branch Prediction Accuracy: 96.1891% MPKI: 5.6957 Average ROB Occupancy at Mispredict: 87.0873

CPU 3 Branch Prediction Accuracy: 98.6596% MPKI: 1.66875 Average ROB Occupancy at Mispredict: 100.779

ChampSim completed all CPUs

Total Simulation Statistics (not including warmup)

CPU 0 cumulative IPC: 1.2094 instructions: 52507737 cycles: 43416482
L1D TOTAL     ACCESS:   10136099  HIT:    8961018  MISS:    1175081
L1D LOAD      ACCESS:    9630338  HIT:    8834175  MISS:     796163
L1D RFO       ACCESS:     505761  HIT:     126843  MISS:     378918
L1D PREFETCH  ACCESS:          0  HIT:          0  MISS:          0
L1D WRITEBACK ACCESS:          0  HIT:          0  MISS:          0
L1I TOTAL     ACCESS:    3291962  HIT:    3291948  MISS:         14
L1I LOAD      ACCESS:    3291962  HIT:    3291948  MISS:         14
L1I RFO       ACCESS:          0  HIT:          0  MISS:          0
L1I PREFETCH  ACCESS:          0  HIT:          0  MISS:          0
L1I WRITEBACK ACCESS:          0  HIT:          0  MISS:          0
L2C TOTAL     ACCESS:    1994392  HIT:     814938  MISS:    1179454
L2C LOAD      ACCESS:     796177  HIT:     435821  MISS:     360356
L2C RFO       ACCESS:     378918  HIT:          0  MISS:     378918
L2C PREFETCH  ACCESS:     440650  HIT:        477  MISS:     440173
L2C WRITEBACK ACCESS:     378647  HIT:     378640  MISS:          7
LLC TOTAL     ACCESS:    4879451  HIT:    3682029  MISS:    1197422
LLC LOAD      ACCESS:     307014  HIT:     265371  MISS:      41643
LLC RFO       ACCESS:     378918  HIT:          2  MISS:     378916
LLC PREFETCH  ACCESS:    3817633  HIT:    3040772  MISS:     776861
LLC WRITEBACK ACCESS:     375886  HIT:     375884  MISS:          2

CPU 1 cumulative IPC: 1.98508 instructions: 86185384 cycles: 43416482
L1D TOTAL     ACCESS:   11936847  HIT:   11907211  MISS:      29636
L1D LOAD      ACCESS:    6265623  HIT:    6236968  MISS:      28655
L1D RFO       ACCESS:    5671224  HIT:    5670243  MISS:        981
L1D PREFETCH  ACCESS:          0  HIT:          0  MISS:          0
L1D WRITEBACK ACCESS:          0  HIT:          0  MISS:          0
L1I TOTAL     ACCESS:    4676195  HIT:    4676173  MISS:         22
L1I LOAD      ACCESS:    4676195  HIT:    4676173  MISS:         22
L1I RFO       ACCESS:          0  HIT:          0  MISS:          0
L1I PREFETCH  ACCESS:          0  HIT:          0  MISS:          0
L1I WRITEBACK ACCESS:          0  HIT:          0  MISS:          0
L2C TOTAL     ACCESS:      45126  HIT:      18262  MISS:      26864
L2C LOAD      ACCESS:      28677  HIT:       3141  MISS:      25536
L2C RFO       ACCESS:        981  HIT:         66  MISS:        915
L2C PREFETCH  ACCESS:      14489  HIT:      14080  MISS:        409
L2C WRITEBACK ACCESS:        979  HIT:        975  MISS:          4
LLC TOTAL     ACCESS:      39558  HIT:      10711  MISS:      28847
LLC LOAD      ACCESS:      24996  HIT:       6875  MISS:      18121
LLC RFO       ACCESS:        915  HIT:          0  MISS:        915
LLC PREFETCH  ACCESS:      12987  HIT:       3833  MISS:       9154
LLC WRITEBACK ACCESS:        660  HIT:          3  MISS:        657

CPU 2 cumulative IPC: 0.230327 instructions: 10000000 cycles: 43416482
L1D TOTAL     ACCESS:    3990986  HIT:    3809359  MISS:     181627
L1D LOAD      ACCESS:    2245331  HIT:    2086144  MISS:     159187
L1D RFO       ACCESS:    1745655  HIT:    1723215  MISS:      22440
L1D PREFETCH  ACCESS:          0  HIT:          0  MISS:          0
L1D WRITEBACK ACCESS:          0  HIT:          0  MISS:          0
L1I TOTAL     ACCESS:    1095295  HIT:    1089124  MISS:       6171
L1I LOAD      ACCESS:    1095295  HIT:    1089124  MISS:       6171
L1I RFO       ACCESS:          0  HIT:          0  MISS:          0
L1I PREFETCH  ACCESS:          0  HIT:          0  MISS:          0
L1I WRITEBACK ACCESS:          0  HIT:          0  MISS:          0
L2C TOTAL     ACCESS:     303059  HIT:     164901  MISS:     138158
L2C LOAD      ACCESS:     165356  HIT:      49719  MISS:     115637
L2C RFO       ACCESS:      22440  HIT:       5401  MISS:      17039
L2C PREFETCH  ACCESS:      24689  HIT:      19328  MISS:       5361
L2C WRITEBACK ACCESS:      90574  HIT:      90453  MISS:        121
LLC TOTAL     ACCESS:     345707  HIT:     135074  MISS:     210633
LLC LOAD      ACCESS:     115554  HIT:      31595  MISS:      83959
LLC RFO       ACCESS:      17001  HIT:       4883  MISS:      12118
LLC PREFETCH  ACCESS:     146504  HIT:      44308  MISS:     102196
LLC WRITEBACK ACCESS:      66648  HIT:      54288  MISS:      12360

CPU 3 cumulative IPC: 1.66269 instructions: 72188109 cycles: 43416483
L1D TOTAL     ACCESS:   26025304  HIT:   26020888  MISS:       4416
L1D LOAD      ACCESS:   10402052  HIT:   10397792  MISS:       4260
L1D RFO       ACCESS:   15623252  HIT:   15623096  MISS:        156
L1D PREFETCH  ACCESS:          0  HIT:          0  MISS:          0
L1D WRITEBACK ACCESS:          0  HIT:          0  MISS:          0
L1I TOTAL     ACCESS:    8331905  HIT:    8329725  MISS:       2180
L1I LOAD      ACCESS:    8331905  HIT:    8329725  MISS:       2180
L1I RFO       ACCESS:          0  HIT:          0  MISS:          0
L1I PREFETCH  ACCESS:          0  HIT:          0  MISS:          0
L1I WRITEBACK ACCESS:          0  HIT:          0  MISS:          0
L2C TOTAL     ACCESS:       9037  HIT:       4346  MISS:       4691
L2C LOAD      ACCESS:       6440  HIT:       1979  MISS:       4461
L2C RFO       ACCESS:        156  HIT:         19  MISS:        137
L2C PREFETCH  ACCESS:       1947  HIT:       1854  MISS:         93
L2C WRITEBACK ACCESS:        494  HIT:        494  MISS:          0
LLC TOTAL     ACCESS:       8426  HIT:       1473  MISS:       6953
LLC LOAD      ACCESS:       4456  HIT:        712  MISS:       3744
LLC RFO       ACCESS:        137  HIT:          0  MISS:        137
LLC PREFETCH  ACCESS:       3821  HIT:        761  MISS:       3060
LLC WRITEBACK ACCESS:         12  HIT:          0  MISS:         12

Region of Interest Statistics

CPU 0 cumulative IPC: 1.19057 instructions: 10000000 cycles: 8399312
L1D TOTAL     ACCESS:    1393856  HIT:    1117407  MISS:     276449
L1D LOAD      ACCESS:    1235581  HIT:    1088488  MISS:     147093
L1D RFO       ACCESS:     158275  HIT:      28919  MISS:     129356
L1D PREFETCH  ACCESS:          0  HIT:          0  MISS:          0
L1D WRITEBACK ACCESS:          0  HIT:          0  MISS:          0
L1D PREFETCH  REQUESTED:          0  ISSUED:          0  USEFUL:          0  USELESS:          0
L1D AVERAGE MISS LATENCY: 808.987 cycles
L1I TOTAL     ACCESS:     138300  HIT:     138286  MISS:         14
L1I LOAD      ACCESS:     138300  HIT:     138286  MISS:         14
L1I RFO       ACCESS:          0  HIT:          0  MISS:          0
L1I PREFETCH  ACCESS:          0  HIT:          0  MISS:          0
L1I WRITEBACK ACCESS:          0  HIT:          0  MISS:          0
L1I PREFETCH  REQUESTED:          0  ISSUED:          0  USEFUL:          0  USELESS:          0
L1I AVERAGE MISS LATENCY: 213.786 cycles
L2C TOTAL     ACCESS:     480991  HIT:     203725  MISS:     277266
L2C LOAD      ACCESS:     147108  HIT:      74471  MISS:      72637
L2C RFO       ACCESS:     129357  HIT:          0  MISS:     129357
L2C PREFETCH  ACCESS:      75454  HIT:        184  MISS:      75270
L2C WRITEBACK ACCESS:     129072  HIT:     129070  MISS:          2
L2C PREFETCH  REQUESTED:    6102171  ISSUED:    4996885  USEFUL:     445848  USELESS:       4407
L2C AVERAGE MISS LATENCY: 804.092 cycles
LLC TOTAL     ACCESS:    1008329  HIT:     733320  MISS:     275009
LLC LOAD      ACCESS:      53165  HIT:      44581  MISS:       8584
LLC RFO       ACCESS:     129357  HIT:          0  MISS:     129357
LLC PREFETCH  ACCESS:     699494  HIT:     562427  MISS:     137067
LLC WRITEBACK ACCESS:     126313  HIT:     126312  MISS:          1
LLC PREFETCH  REQUESTED:          0  ISSUED:          0  USEFUL:     293311  USELESS:     576924
LLC AVERAGE MISS LATENCY: 2297.66 cycles
Major fault: 0 Minor fault: 14466

CPU 1 cumulative IPC: 1.94385 instructions: 10000002 cycles: 5144419
L1D TOTAL     ACCESS:    1414596  HIT:    1410238  MISS:       4358
L1D LOAD      ACCESS:     735336  HIT:     731077  MISS:       4259
L1D RFO       ACCESS:     679260  HIT:     679161  MISS:         99
L1D PREFETCH  ACCESS:          0  HIT:          0  MISS:          0
L1D WRITEBACK ACCESS:          0  HIT:          0  MISS:          0
L1D PREFETCH  REQUESTED:          0  ISSUED:          0  USEFUL:          0  USELESS:          0
L1D AVERAGE MISS LATENCY: 2592.96 cycles
L1I TOTAL     ACCESS:     538040  HIT:     538040  MISS:          0
L1I LOAD      ACCESS:     538040  HIT:     538040  MISS:          0
L1I RFO       ACCESS:          0  HIT:          0  MISS:          0
L1I PREFETCH  ACCESS:          0  HIT:          0  MISS:          0
L1I WRITEBACK ACCESS:          0  HIT:          0  MISS:          0
L1I PREFETCH  REQUESTED:          0  ISSUED:          0  USEFUL:          0  USELESS:          0
L1I AVERAGE MISS LATENCY: inf cycles
L2C TOTAL     ACCESS:       6242  HIT:       2326  MISS:       3916
L2C LOAD      ACCESS:       4259  HIT:        473  MISS:       3786
L2C RFO       ACCESS:         99  HIT:         10  MISS:         89
L2C PREFETCH  ACCESS:       1794  HIT:       1753  MISS:         41
L2C WRITEBACK ACCESS:         90  HIT:         90  MISS:          0
L2C PREFETCH  REQUESTED:      46424  ISSUED:      46377  USEFUL:        372  USELESS:         46
L2C AVERAGE MISS LATENCY: 2808.7 cycles
LLC TOTAL     ACCESS:       5432  HIT:       1175  MISS:       4257
LLC LOAD      ACCESS:       3725  HIT:        812  MISS:       2913
LLC RFO       ACCESS:         89  HIT:          0  MISS:         89
LLC PREFETCH  ACCESS:       1618  HIT:        363  MISS:       1255
LLC WRITEBACK ACCESS:          0  HIT:          0  MISS:          0
LLC PREFETCH  REQUESTED:          0  ISSUED:          0  USEFUL:     293311  USELESS:     576924
LLC AVERAGE MISS LATENCY: 148432 cycles
Major fault: 0 Minor fault: 637

CPU 2 cumulative IPC: 0.230327 instructions: 10000000 cycles: 43416482
L1D TOTAL     ACCESS:    3990986  HIT:    3809359  MISS:     181627
L1D LOAD      ACCESS:    2245331  HIT:    2086144  MISS:     159187
L1D RFO       ACCESS:    1745655  HIT:    1723215  MISS:      22440
L1D PREFETCH  ACCESS:          0  HIT:          0  MISS:          0
L1D WRITEBACK ACCESS:          0  HIT:          0  MISS:          0
L1D PREFETCH  REQUESTED:          0  ISSUED:          0  USEFUL:          0  USELESS:          0
L1D AVERAGE MISS LATENCY: 283.823 cycles
L1I TOTAL     ACCESS:    1095295  HIT:    1089124  MISS:       6171
L1I LOAD      ACCESS:    1095295  HIT:    1089124  MISS:       6171
L1I RFO       ACCESS:          0  HIT:          0  MISS:          0
L1I PREFETCH  ACCESS:          0  HIT:          0  MISS:          0
L1I WRITEBACK ACCESS:          0  HIT:          0  MISS:          0
L1I PREFETCH  REQUESTED:          0  ISSUED:          0  USEFUL:          0  USELESS:          0
L1I AVERAGE MISS LATENCY: 54.0917 cycles
L2C TOTAL     ACCESS:     303059  HIT:     164901  MISS:     138158
L2C LOAD      ACCESS:     165356  HIT:      49719  MISS:     115637
L2C RFO       ACCESS:      22440  HIT:       5401  MISS:      17039
L2C PREFETCH  ACCESS:      24689  HIT:      19328  MISS:       5361
L2C WRITEBACK ACCESS:      90574  HIT:      90453  MISS:        121
L2C PREFETCH  REQUESTED:     212464  ISSUED:     212297  USEFUL:       1395  USELESS:       4172
L2C AVERAGE MISS LATENCY: 360.436 cycles
LLC TOTAL     ACCESS:     345707  HIT:     135074  MISS:     210633
LLC LOAD      ACCESS:     115554  HIT:      31595  MISS:      83959
LLC RFO       ACCESS:      17001  HIT:       4883  MISS:      12118
LLC PREFETCH  ACCESS:     146504  HIT:      44308  MISS:     102196
LLC WRITEBACK ACCESS:      66648  HIT:      54288  MISS:      12360
LLC PREFETCH  REQUESTED:          0  ISSUED:          0  USEFUL:     293311  USELESS:     576924
LLC AVERAGE MISS LATENCY: 2999.89 cycles
Major fault: 0 Minor fault: 23836

CPU 3 cumulative IPC: 1.64348 instructions: 10000000 cycles: 6084659
L1D TOTAL     ACCESS:    3594896  HIT:    3594268  MISS:        628
L1D LOAD      ACCESS:    1413886  HIT:    1413284  MISS:        602
L1D RFO       ACCESS:    2181010  HIT:    2180984  MISS:         26
L1D PREFETCH  ACCESS:          0  HIT:          0  MISS:          0
L1D WRITEBACK ACCESS:          0  HIT:          0  MISS:          0
L1D PREFETCH  REQUESTED:          0  ISSUED:          0  USEFUL:          0  USELESS:          0
L1D AVERAGE MISS LATENCY: 3346.41 cycles
L1I TOTAL     ACCESS:    1138845  HIT:    1138469  MISS:        376
L1I LOAD      ACCESS:    1138845  HIT:    1138469  MISS:        376
L1I RFO       ACCESS:          0  HIT:          0  MISS:          0
L1I PREFETCH  ACCESS:          0  HIT:          0  MISS:          0
L1I WRITEBACK ACCESS:          0  HIT:          0  MISS:          0
L1I PREFETCH  REQUESTED:          0  ISSUED:          0  USEFUL:          0  USELESS:          0
L1I AVERAGE MISS LATENCY: 382.505 cycles
L2C TOTAL     ACCESS:       1329  HIT:        570  MISS:        759
L2C LOAD      ACCESS:        978  HIT:        258  MISS:        720
L2C RFO       ACCESS:         26  HIT:          1  MISS:         25
L2C PREFETCH  ACCESS:        298  HIT:        284  MISS:         14
L2C WRITEBACK ACCESS:         27  HIT:         27  MISS:          0
L2C PREFETCH  REQUESTED:       7474  ISSUED:       7473  USEFUL:         89  USELESS:          1
L2C AVERAGE MISS LATENCY: 2882.65 cycles
LLC TOTAL     ACCESS:       1361  HIT:        241  MISS:       1120
LLC LOAD      ACCESS:        719  HIT:        110  MISS:        609
LLC RFO       ACCESS:         25  HIT:          0  MISS:         25
LLC PREFETCH  ACCESS:        617  HIT:        131  MISS:        486
LLC WRITEBACK ACCESS:          0  HIT:          0  MISS:          0
LLC PREFETCH  REQUESTED:          0  ISSUED:          0  USEFUL:     293311  USELESS:     576924
LLC AVERAGE MISS LATENCY: 564176 cycles
Major fault: 0 Minor fault: 675

DRAM Statistics
 CHANNEL 0
 RQ ROW_BUFFER_HIT:     446820  ROW_BUFFER_MISS:     983935
 DBUS_CONGESTED:     939638
 WQ ROW_BUFFER_HIT:      40203  ROW_BUFFER_MISS:     354182  FULL:          0

 AVG_CONGESTED_CYCLE: 6
