
*** ChampSim Multicore Out-of-Order Simulator ***

Warmup Instructions: 1000000
Simulation Instructions: 10000000
Number of CPUs: 4
LLC sets: 8192
LLC ways: 16
Off-chip DRAM Size: 4096 MB Channels: 1 Width: 64-bit Data Rate: 3200 MT/s

CPU 0 runs /home/virtualcse/Data-Prefetching/ChampSim/dpc3_traces/620.omnetpp_s-141B.champsimtrace.xz
CPU 1 runs /home/virtualcse/Data-Prefetching/ChampSim/dpc3_traces/623.xalancbmk_s-202B.champsimtrace.xz
CPU 2 runs /home/virtualcse/Data-Prefetching/ChampSim/dpc3_traces/603.bwaves_s-1080B.champsimtrace.xz
CPU 3 runs /home/virtualcse/Data-Prefetching/ChampSim/dpc3_traces/619.lbm_s-2676B.champsimtrace.xz
Ultra pref. initializing...
Ultra pref. initialized
Ultra pref. initializing...
Ultra pref. initialized
Ultra pref. initializing...
Ultra pref. initialized
Ultra pref. initializing...
Ultra pref. initialized
Ultra pref. initializing...
Ultra pref. initialized
Ultra pref. initializing...
Ultra pref. initialized
Ultra pref. initializing...
Ultra pref. initialized
Ultra pref. initializing...
Ultra pref. initialized

Warmup complete CPU 0 instructions: 1000001 cycles: 540393 (Simulation time: 0 hr 0 min 12 sec) 
Warmup complete CPU 1 instructions: 1527657 cycles: 540392 (Simulation time: 0 hr 0 min 12 sec) 
Warmup complete CPU 2 instructions: 1560191 cycles: 540392 (Simulation time: 0 hr 0 min 12 sec) 
Warmup complete CPU 3 instructions: 1593262 cycles: 540392 (Simulation time: 0 hr 0 min 12 sec) 

Heartbeat CPU 2 instructions: 10000001 cycles: 5416108 heartbeat IPC: 1.84634 cumulative IPC: 1.73099 (Simulation time: 0 hr 0 min 39 sec) 
Finished CPU 2 instructions: 10000001 cycles: 6031823 cumulative IPC: 1.65787 (Simulation time: 0 hr 0 min 45 sec) 
Heartbeat CPU 2 instructions: 20000003 cycles: 11762606 heartbeat IPC: 1.57567 cumulative IPC: 1.64315 (Simulation time: 0 hr 1 min 10 sec) 
Heartbeat CPU 2 instructions: 30000001 cycles: 16376557 heartbeat IPC: 2.16734 cumulative IPC: 1.79588 (Simulation time: 0 hr 1 min 34 sec) 
Heartbeat CPU 2 instructions: 40000003 cycles: 20993281 heartbeat IPC: 2.16604 cumulative IPC: 1.87943 (Simulation time: 0 hr 1 min 58 sec) 
Heartbeat CPU 3 instructions: 10000002 cycles: 25317019 heartbeat IPC: 0.394991 cumulative IPC: 0.339301 (Simulation time: 0 hr 2 min 20 sec) 
Heartbeat CPU 2 instructions: 50000003 cycles: 25674759 heartbeat IPC: 2.13608 cumulative IPC: 1.92723 (Simulation time: 0 hr 2 min 22 sec) 
Finished CPU 3 instructions: 10000003 cycles: 29234073 cumulative IPC: 0.342067 (Simulation time: 0 hr 2 min 43 sec) 
Heartbeat CPU 2 instructions: 60000000 cycles: 30410577 heartbeat IPC: 2.11157 cumulative IPC: 1.95646 (Simulation time: 0 hr 2 min 46 sec) 
Heartbeat CPU 2 instructions: 70000003 cycles: 35132692 heartbeat IPC: 2.1177 cumulative IPC: 1.97847 (Simulation time: 0 hr 3 min 10 sec) 
Heartbeat CPU 2 instructions: 80000002 cycles: 39861156 heartbeat IPC: 2.11485 cumulative IPC: 1.99487 (Simulation time: 0 hr 3 min 34 sec) 
Heartbeat CPU 2 instructions: 90000001 cycles: 44625449 heartbeat IPC: 2.09895 cumulative IPC: 2.00612 (Simulation time: 0 hr 3 min 58 sec) 
Heartbeat CPU 1 instructions: 10000003 cycles: 48970416 heartbeat IPC: 0.204205 cumulative IPC: 0.17494 (Simulation time: 0 hr 4 min 21 sec) 
Heartbeat CPU 2 instructions: 100000001 cycles: 49399975 heartbeat IPC: 2.09445 cumulative IPC: 2.01475 (Simulation time: 0 hr 4 min 23 sec) 
Heartbeat CPU 0 instructions: 10000000 cycles: 52987361 heartbeat IPC: 0.188724 cumulative IPC: 0.171602 (Simulation time: 0 hr 4 min 42 sec) 
Heartbeat CPU 3 instructions: 20000000 cycles: 53774198 heartbeat IPC: 0.351405 cumulative IPC: 0.345772 (Simulation time: 0 hr 4 min 46 sec) 
Heartbeat CPU 2 instructions: 110000000 cycles: 54132700 heartbeat IPC: 2.11295 cumulative IPC: 2.02342 (Simulation time: 0 hr 4 min 48 sec) 
Finished CPU 1 instructions: 10000003 cycles: 56597999 cumulative IPC: 0.176685 (Simulation time: 0 hr 5 min 3 sec) 
Finished CPU 0 instructions: 10000000 cycles: 57905984 cumulative IPC: 0.172694 (Simulation time: 0 hr 5 min 10 sec) 

CPU 0 Branch Prediction Accuracy: 96.1891% MPKI: 5.6957 Average ROB Occupancy at Mispredict: 87.5671

CPU 1 Branch Prediction Accuracy: 99.9856% MPKI: 0.0353987 Average ROB Occupancy at Mispredict: 132.302

CPU 2 Branch Prediction Accuracy: 92.0773% MPKI: 10.8702 Average ROB Occupancy at Mispredict: 83.9678

CPU 3 Branch Prediction Accuracy: 97.3767% MPKI: 0.440823 Average ROB Occupancy at Mispredict: 317.478

ChampSim completed all CPUs

Total Simulation Statistics (not including warmup)

CPU 0 cumulative IPC: 0.172694 instructions: 10000000 cycles: 57905984
L1D TOTAL     ACCESS:    5640271  HIT:    5319400  MISS:     320871
L1D LOAD      ACCESS:    2252153  HIT:    2090696  MISS:     161457
L1D RFO       ACCESS:    1773017  HIT:    1755253  MISS:      17764
L1D PREFETCH  ACCESS:    1615101  HIT:    1473451  MISS:     141650
L1D WRITEBACK ACCESS:          0  HIT:          0  MISS:          0
L1I TOTAL     ACCESS:    1095295  HIT:    1089124  MISS:       6171
L1I LOAD      ACCESS:    1095295  HIT:    1089124  MISS:       6171
L1I RFO       ACCESS:          0  HIT:          0  MISS:          0
L1I PREFETCH  ACCESS:          0  HIT:          0  MISS:          0
L1I WRITEBACK ACCESS:          0  HIT:          0  MISS:          0
L2C TOTAL     ACCESS:     820682  HIT:     423402  MISS:     397280
L2C LOAD      ACCESS:     164986  HIT:      70828  MISS:      94158
L2C RFO       ACCESS:      16192  HIT:       5966  MISS:      10226
L2C PREFETCH  ACCESS:     542802  HIT:     250148  MISS:     292654
L2C WRITEBACK ACCESS:      96702  HIT:      96460  MISS:        242

L1D -512>	(0,110)	(1,41)	(13,10)	(3,9)	(4,32)	(2,6)	(12,1)	(-5,1)	(5,18)	(-9,8)	(6,17)	(68,4)	(-1,19)	(-13,5)	(-17,4)	(-8,2)	
L1D -511>	(6,6)	(1,0)	(1,0)	(1,0)	(1,0)	(1,0)	(1,0)	(1,0)	(1,0)	(1,0)	(1,0)	(1,0)	(1,0)	(1,0)	(1,0)	(1,0)	
L1D -510>	(6,4)	(1,0)	(1,0)	(1,0)	(1,0)	(1,0)	(1,0)	(1,0)	(1,0)	(1,0)	(1,0)	(1,0)	(1,0)	(1,0)	(1,0)	(1,0)	
L1D -509>	(0,1)	(12,5)	(1,5)	(6,2)	(1,0)	(1,0)	(1,0)	(1,0)	(1,0)	(1,0)	(1,0)	(1,0)	(1,0)	(1,0)	(1,0)	(1,0)	
L1D -508>	(6,2)	(12,2)	(0,1)	(1,0)	(1,0)	(1,0)	(1,0)	(1,0)	(1,0)	(1,0)	(1,0)	(1,0)	(1,0)	(1,0)	(1,0)	(1,0)	
L1D -507>	(2,1)	(13,7)	(1,0)	(1,0)	(1,0)	(1,0)	(1,0)	(1,0)	(1,0)	(1,0)	(1,0)	(1,0)	(1,0)	(1,0)	(1,0)	(1,0)	
L1D -506>	(20,1)	(122,1)	(-1,1)	(1,0)	(1,0)	(1,0)	(1,0)	(1,0)	(1,0)	(1,0)	(1,0)	(1,0)	(1,0)	(1,0)	(1,0)	(1,0)	
L1D -505>	(2,2)	(6,2)	(1,0)	(1,0)	(1,0)	(1,0)	(1,0)	(1,0)	(1,0)	(1,0)	(1,0)	(1,0)	(1,0)	(1,0)	(1,0)	(1,0)	
L1D -504>	(0,6)	(1,1)	(85,1)	(1,0)	(1,0)	(1,0)	(1,0)	(1,0)	(1,0)	(1,0)	(1,0)	(1,0)	(1,0)	(1,0)	(1,0)	(1,0)	
L1D -503>	(11,1)	(0,1)	(6,1)	(1,0)	(1,0)	(1,0)	(1,0)	(1,0)	(1,0)	(1,0)	(1,0)	(1,0)	(1,0)	(1,0)	(1,0)	(1,0)	
L1D -502>	(99,1)	(6,1)	(112,1)	(1,0)	(1,0)	(1,0)	(1,0)	(1,0)	(1,0)	(1,0)	(1,0)	(1,0)	(1,0)	(1,0)	(1,0)	(1,0)	
L1D -501>	(-8,6)	(-6,1)	(342,1)	(4,1)	(1,0)	(1,0)	(1,0)	(1,0)	(1,0)	(1,0)	(1,0)	(1,0)	(1,0)	(1,0)	(1,0)	(1,0)	
L1D -500>	(4,1)	(1,0)	(1,0)	(1,0)	(1,0)	(1,0)	(1,0)	(1,0)	(1,0)	(1,0)	(1,0)	(1,0)	(1,0)	(1,0)	(1,0)	(1,0)	
L1D -499>	(-8,4)	(29,1)	(6,2)	(1,0)	(1,0)	(1,0)	(1,0)	(1,0)	(1,0)	(1,0)	(1,0)	(1,0)	(1,0)	(1,0)	(1,0)	(1,0)	
L1D -498>	(146,1)	(85,3)	(1,0)	(1,0)	(1,0)	(1,0)	(1,0)	(1,0)	(1,0)	(1,0)	(1,0)	(1,0)	(1,0)	(1,0)	(1,0)	(1,0)	
L1D -497>	(-8,1)	(0,1)	(1,0)	(1,0)	(1,0)	(1,0)	(1,0)	(1,0)	(1,0)	(1,0)	(1,0)	(1,0)	(1,0)	(1,0)	(1,0)	(1,0)	
L1D -496>	(135,1)	(13,1)	(1,0)	(1,0)	(1,0)	(1,0)	(1,0)	(1,0)	(1,0)	(1,0)	(1,0)	(1,0)	(1,0)	(1,0)	(1,0)	(1,0)	
L1D -495>	(2,1)	(12,1)	(0,2)	(146,1)	(1,0)	(1,0)	(1,0)	(1,0)	(1,0)	(1,0)	(1,0)	(1,0)	(1,0)	(1,0)	(1,0)	(1,0)	
L1D -494>	(6,1)	(0,1)	(112,2)	(146,1)	(1,0)	(1,0)	(1,0)	(1,0)	(1,0)	(1,0)	(1,0)	(1,0)	(1,0)	(1,0)	(1,0)	(1,0)	
L1D -493>	(1,1)	(0,1)	(1,0)	(1,0)	(1,0)	(1,0)	(1,0)	(1,0)	(1,0)	(1,0)	(1,0)	(1,0)	(1,0)	(1,0)	(1,0)	(1,0)	
L1D -492>	(0,2)	(13,4)	(1,0)	(1,0)	(1,0)	(1,0)	(1,0)	(1,0)	(1,0)	(1,0)	(1,0)	(1,0)	(1,0)	(1,0)	(1,0)	(1,0)	
L1D -491>	(-1,2)	(-13,1)	(1,0)	(1,0)	(1,0)	(1,0)	(1,0)	(1,0)	(1,0)	(1,0)	(1,0)	(1,0)	(1,0)	(1,0)	(1,0)	(1,0)	
L1D -490>	(98,1)	(13,1)	(47,1)	(1,0)	(1,0)	(1,0)	(1,0)	(1,0)	(1,0)	(1,0)	(1,0)	(1,0)	(1,0)	(1,0)	(1,0)	(1,0)	
L1D -489>	(13,6)	(0,1)	(-3,1)	(1,0)	(1,0)	(1,0)	(1,0)	(1,0)	(1,0)	(1,0)	(1,0)	(1,0)	(1,0)	(1,0)	(1,0)	(1,0)	
L1D -488>	(-3,1)	(115,1)	(99,1)	(12,1)	(1,0)	(1,0)	(1,0)	(1,0)	(1,0)	(1,0)	(1,0)	(1,0)	(1,0)	(1,0)	(1,0)	(1,0)	
L1D -487>	(13,1)	(304,1)	(0,1)	(1,0)	(1,0)	(1,0)	(1,0)	(1,0)	(1,0)	(1,0)	(1,0)	(1,0)	(1,0)	(1,0)	(1,0)	(1,0)	
L1D -486>	(99,1)	(55,1)	(18,1)	(0,1)	(79,1)	(1,0)	(1,0)	(1,0)	(1,0)	(1,0)	(1,0)	(1,0)	(1,0)	(1,0)	(1,0)	(1,0)	
L1D -485>	(0,3)	(6,1)	(1,1)	(1,0)	(1,0)	(1,0)	(1,0)	(1,0)	(1,0)	(1,0)	(1,0)	(1,0)	(1,0)	(1,0)	(1,0)	(1,0)	
L1D -484>	(82,1)	(346,1)	(70,1)	(6,1)	(85,3)	(0,1)	(10,1)	(47,1)	(1,0)	(1,0)	(1,0)	(1,0)	(1,0)	(1,0)	(1,0)	(1,0)	
L1D -483>	(1,6)	(6,1)	(322,1)	(1,0)	(1,0)	(1,0)	(1,0)	(1,0)	(1,0)	(1,0)	(1,0)	(1,0)	(1,0)	(1,0)	(1,0)	(1,0)	
L1D -482>	(98,1)	(38,2)	(13,1)	(1,1)	(-25,1)	(-6,1)	(4,1)	(1,0)	(1,0)	(1,0)	(1,0)	(1,0)	(1,0)	(1,0)	(1,0)	(1,0)	
L1D -481>	(0,2)	(1,0)	(1,0)	(1,0)	(1,0)	(1,0)	(1,0)	(1,0)	(1,0)	(1,0)	(1,0)	(1,0)	(1,0)	(1,0)	(1,0)	(1,0)	
L1D -480>	(99,2)	(3,1)	(34,1)	(1,0)	(1,0)	(1,0)	(1,0)	(1,0)	(1,0)	(1,0)	(1,0)	(1,0)	(1,0)	(1,0)	(1,0)	(1,0)	
L1D -479>	(146,1)	(0,2)	(1,0)	(1,0)	(1,0)	(1,0)	(1,0)	(1,0)	(1,0)	(1,0)	(1,0)	(1,0)	(1,0)	(1,0)	(1,0)	(1,0)	
L1D -478>	(34,1)	(95,1)	(13,1)	(1,0)	(1,0)	(1,0)	(1,0)	(1,0)	(1,0)	(1,0)	(1,0)	(1,0)	(1,0)	(1,0)	(1,0)	(1,0)	
L1D -477>	(1,0)	(1,0)	(1,0)	(1,0)	(1,0)	(1,0)	(1,0)	(1,0)	(1,0)	(1,0)	(1,0)	(1,0)	(1,0)	(1,0)	(1,0)	(1,0)	
L1D -476>	(91,1)	(3,1)	(0,2)	(-2,1)	(1,0)	(1,0)	(1,0)	(1,0)	(1,0)	(1,0)	(1,0)	(1,0)	(1,0)	(1,0)	(1,0)	(1,0)	
L1D -475>	(17,1)	(1,0)	(1,0)	(1,0)	(1,0)	(1,0)	(1,0)	(1,0)	(1,0)	(1,0)	(1,0)	(1,0)	(1,0)	(1,0)	(1,0)	(1,0)	
L1D -474>	(0,1)	(1,0)	(1,0)	(1,0)	(1,0)	(1,0)	(1,0)	(1,0)	(1,0)	(1,0)	(1,0)	(1,0)	(1,0)	(1,0)	(1,0)	(1,0)	
L1D -473>	(4,1)	(52,1)	(1,0)	(1,0)	(1,0)	(1,0)	(1,0)	(1,0)	(1,0)	(1,0)	(1,0)	(1,0)	(1,0)	(1,0)	(1,0)	(1,0)	
L1D -472>	(4,1)	(1,0)	(1,0)	(1,0)	(1,0)	(1,0)	(1,0)	(1,0)	(1,0)	(1,0)	(1,0)	(1,0)	(1,0)	(1,0)	(1,0)	(1,0)	
L1D -471>	(1,2)	(0,1)	(262,1)	(1,0)	(1,0)	(1,0)	(1,0)	(1,0)	(1,0)	(1,0)	(1,0)	(1,0)	(1,0)	(1,0)	(1,0)	(1,0)	
L1D -470>	(45,1)	(0,2)	(2,1)	(124,1)	(204,1)	(34,1)	(121,1)	(370,1)	(1,1)	(1,0)	(1,0)	(1,0)	(1,0)	(1,0)	(1,0)	(1,0)	
L1D -469>	(350,1)	(1,0)	(1,0)	(1,0)	(1,0)	(1,0)	(1,0)	(1,0)	(1,0)	(1,0)	(1,0)	(1,0)	(1,0)	(1,0)	(1,0)	(1,0)	
L1D -468>	(20,1)	(0,2)	(69,1)	(103,1)	(1,0)	(1,0)	(1,0)	(1,0)	(1,0)	(1,0)	(1,0)	(1,0)	(1,0)	(1,0)	(1,0)	(1,0)	
L1D -467>	(4,1)	(1,1)	(1,0)	(1,0)	(1,0)	(1,0)	(1,0)	(1,0)	(1,0)	(1,0)	(1,0)	(1,0)	(1,0)	(1,0)	(1,0)	(1,0)	
L1D -466>	(490,1)	(4,1)	(1,0)	(1,0)	(1,0)	(1,0)	(1,0)	(1,0)	(1,0)	(1,0)	(1,0)	(1,0)	(1,0)	(1,0)	(1,0)	(1,0)	
L1D -465>	(2,1)	(5,1)	(3,1)	(6,2)	(1,1)	(1,0)	(1,0)	(1,0)	(1,0)	(1,0)	(1,0)	(1,0)	(1,0)	(1,0)	(1,0)	(1,0)	
L1D -464>	(-1,1)	(17,1)	(46,1)	(2,1)	(1,1)	(0,1)	(1,0)	(1,0)	(1,0)	(1,0)	(1,0)	(1,0)	(1,0)	(1,0)	(1,0)	(1,0)	
L1D -463>	(1,1)	(17,1)	(75,1)	(1,0)	(1,0)	(1,0)	(1,0)	(1,0)	(1,0)	(1,0)	(1,0)	(1,0)	(1,0)	(1,0)	(1,0)	(1,0)	
L1D -462>	(69,1)	(218,1)	(89,1)	(1,1)	(1,0)	(1,0)	(1,0)	(1,0)	(1,0)	(1,0)	(1,0)	(1,0)	(1,0)	(1,0)	(1,0)	(1,0)	
L1D -461>	(17,1)	(430,1)	(1,0)	(1,0)	(1,0)	(1,0)	(1,0)	(1,0)	(1,0)	(1,0)	(1,0)	(1,0)	(1,0)	(1,0)	(1,0)	(1,0)	
L1D -460>	(1,2)	(0,1)	(34,1)	(382,1)	(1,0)	(1,0)	(1,0)	(1,0)	(1,0)	(1,0)	(1,0)	(1,0)	(1,0)	(1,0)	(1,0)	(1,0)	
L1D -459>	(0,2)	(146,1)	(1,1)	(1,0)	(1,0)	(1,0)	(1,0)	(1,0)	(1,0)	(1,0)	(1,0)	(1,0)	(1,0)	(1,0)	(1,0)	(1,0)	
L1D -458>	(456,2)	(91,1)	(0,4)	(26,1)	(48,1)	(-6,1)	(-17,1)	(1,0)	(1,0)	(1,0)	(1,0)	(1,0)	(1,0)	(1,0)	(1,0)	(1,0)	
L1D -457>	(0,1)	(276,1)	(1,0)	(1,0)	(1,0)	(1,0)	(1,0)	(1,0)	(1,0)	(1,0)	(1,0)	(1,0)	(1,0)	(1,0)	(1,0)	(1,0)	
L1D -456>	(1,2)	(66,1)	(89,1)	(376,1)	(1,0)	(1,0)	(1,0)	(1,0)	(1,0)	(1,0)	(1,0)	(1,0)	(1,0)	(1,0)	(1,0)	(1,0)	
L1D -455>	(2,1)	(54,1)	(68,12)	(50,1)	(3,1)	(1,0)	(1,0)	(1,0)	(1,0)	(1,0)	(1,0)	(1,0)	(1,0)	(1,0)	(1,0)	(1,0)	
L1D -454>	(0,31)	(1,22)	(108,1)	(79,1)	(50,2)	(57,2)	(1,0)	(1,0)	(1,0)	(1,0)	(1,0)	(1,0)	(1,0)	(1,0)	(1,0)	(1,0)	
L1D -453>	(0,1)	(17,1)	(1,3)	(1,0)	(1,0)	(1,0)	(1,0)	(1,0)	(1,0)	(1,0)	(1,0)	(1,0)	(1,0)	(1,0)	(1,0)	(1,0)	
L1D -452>	(0,1)	(1,2)	(83,1)	(426,1)	(-1,1)	(124,1)	(1,0)	(1,0)	(1,0)	(1,0)	(1,0)	(1,0)	(1,0)	(1,0)	(1,0)	(1,0)	
L1D -451>	(2,2)	(-12,1)	(70,1)	(5,1)	(316,1)	(1,1)	(0,1)	(1,0)	(1,0)	(1,0)	(1,0)	(1,0)	(1,0)	(1,0)	(1,0)	(1,0)	
L1D -450>	(97,1)	(366,1)	(38,1)	(0,5)	(1,0)	(1,0)	(1,0)	(1,0)	(1,0)	(1,0)	(1,0)	(1,0)	(1,0)	(1,0)	(1,0)	(1,0)	
L1D -449>	(68,108)	(2,1)	(0,3)	(5,1)	(1,0)	(1,0)	(1,0)	(1,0)	(1,0)	(1,0)	(1,0)	(1,0)	(1,0)	(1,0)	(1,0)	(1,0)	
L1D -448>	(-1,1)	(68,6)	(1,2)	(0,1)	(106,1)	(57,1)	(69,1)	(438,1)	(1,0)	(1,0)	(1,0)	(1,0)	(1,0)	(1,0)	(1,0)	(1,0)	
L1D -447>	(1,1)	(71,1)	(0,1)	(5,1)	(1,0)	(1,0)	(1,0)	(1,0)	(1,0)	(1,0)	(1,0)	(1,0)	(1,0)	(1,0)	(1,0)	(1,0)	
L1D -446>	(77,3)	(0,2)	(278,1)	(4,1)	(62,1)	(1,2)	(108,1)	(1,0)	(1,0)	(1,0)	(1,0)	(1,0)	(1,0)	(1,0)	(1,0)	(1,0)	
L1D -445>	(0,4)	(68,1)	(1,1)	(458,1)	(5,1)	(23,1)	(2,1)	(-10,1)	(1,0)	(1,0)	(1,0)	(1,0)	(1,0)	(1,0)	(1,0)	(1,0)	
L1D -444>	(1,1)	(71,1)	(69,2)	(0,2)	(272,1)	(17,1)	(1,0)	(1,0)	(1,0)	(1,0)	(1,0)	(1,0)	(1,0)	(1,0)	(1,0)	(1,0)	
L1D -443>	(1,2)	(0,2)	(1,0)	(1,0)	(1,0)	(1,0)	(1,0)	(1,0)	(1,0)	(1,0)	(1,0)	(1,0)	(1,0)	(1,0)	(1,0)	(1,0)	
L1D -442>	(442,1)	(0,6)	(399,1)	(1,1)	(12,1)	(-7,1)	(1,0)	(1,0)	(1,0)	(1,0)	(1,0)	(1,0)	(1,0)	(1,0)	(1,0)	(1,0)	
L1D -441>	(-1,1)	(60,1)	(0,1)	(70,1)	(-10,1)	(1,0)	(1,0)	(1,0)	(1,0)	(1,0)	(1,0)	(1,0)	(1,0)	(1,0)	(1,0)	(1,0)	
L1D -440>	(95,1)	(2,2)	(-1,1)	(3,1)	(0,1)	(77,1)	(63,1)	(1,0)	(1,0)	(1,0)	(1,0)	(1,0)	(1,0)	(1,0)	(1,0)	(1,0)	
L1D -439>	(1,1)	(0,3)	(-4,1)	(35,2)	(1,0)	(1,0)	(1,0)	(1,0)	(1,0)	(1,0)	(1,0)	(1,0)	(1,0)	(1,0)	(1,0)	(1,0)	
L1D -438>	(4,2)	(14,1)	(61,2)	(438,1)	(34,1)	(-8,1)	(1,0)	(1,0)	(1,0)	(1,0)	(1,0)	(1,0)	(1,0)	(1,0)	(1,0)	(1,0)	
L1D -437>	(5,2)	(394,1)	(-8,1)	(-2,1)	(0,1)	(29,2)	(1,0)	(1,0)	(1,0)	(1,0)	(1,0)	(1,0)	(1,0)	(1,0)	(1,0)	(1,0)	
L1D -436>	(-1,1)	(73,1)	(63,3)	(0,1)	(107,1)	(69,1)	(1,0)	(1,0)	(1,0)	(1,0)	(1,0)	(1,0)	(1,0)	(1,0)	(1,0)	(1,0)	
L1D -435>	(0,3)	(190,1)	(-1,1)	(276,1)	(1,1)	(-6,1)	(410,1)	(23,1)	(1,0)	(1,0)	(1,0)	(1,0)	(1,0)	(1,0)	(1,0)	(1,0)	
L1D -434>	(1,2)	(-1,1)	(0,4)	(398,1)	(5,2)	(-11,1)	(101,1)	(69,1)	(1,0)	(1,0)	(1,0)	(1,0)	(1,0)	(1,0)	(1,0)	(1,0)	
L1D -433>	(5,1)	(0,1)	(6,1)	(328,1)	(1,0)	(1,0)	(1,0)	(1,0)	(1,0)	(1,0)	(1,0)	(1,0)	(1,0)	(1,0)	(1,0)	(1,0)	
L1D -432>	(38,1)	(3,2)	(10,1)	(364,1)	(91,1)	(0,3)	(1,1)	(61,1)	(52,1)	(-20,1)	(2,2)	(-10,1)	(1,0)	(1,0)	(1,0)	(1,0)	
L1D -431>	(6,1)	(17,1)	(0,3)	(1,1)	(-8,2)	(47,2)	(92,1)	(1,0)	(1,0)	(1,0)	(1,0)	(1,0)	(1,0)	(1,0)	(1,0)	(1,0)	
L1D -430>	(0,1)	(418,1)	(26,1)	(69,1)	(4,1)	(-2,1)	(286,1)	(32,1)	(100,1)	(1,0)	(1,0)	(1,0)	(1,0)	(1,0)	(1,0)	(1,0)	
L1D -429>	(-29,1)	(3,1)	(169,1)	(4,1)	(56,1)	(0,1)	(238,1)	(431,2)	(29,1)	(13,1)	(411,1)	(1,0)	(1,0)	(1,0)	(1,0)	(1,0)	
L1D -428>	(412,1)	(408,1)	(4,1)	(61,3)	(0,4)	(360,1)	(250,1)	(468,1)	(1,1)	(89,1)	(12,1)	(1,0)	(1,0)	(1,0)	(1,0)	(1,0)	
L1D -427>	(28,124)	(47,1)	(0,4)	(5,3)	(2,1)	(-8,1)	(1,1)	(56,1)	(-5,1)	(6,1)	(1,0)	(1,0)	(1,0)	(1,0)	(1,0)	(1,0)	
L1D -426>	(1,45)	(27,56)	(4,9)	(57,1)	(390,1)	(420,1)	(69,1)	(17,1)	(54,2)	(0,5)	(5,1)	(40,4)	(3,1)	(-47,1)	(406,1)	(37,1)	
L1D -425>	(388,1)	(1,1)	(5,2)	(412,1)	(0,2)	(2,2)	(91,1)	(1,0)	(1,0)	(1,0)	(1,0)	(1,0)	(1,0)	(1,0)	(1,0)	(1,0)	
L1D -424>	(406,1)	(0,2)	(53,1)	(428,1)	(-1,1)	(412,1)	(20,1)	(1,1)	(1,0)	(1,0)	(1,0)	(1,0)	(1,0)	(1,0)	(1,0)	(1,0)	
L1D -423>	(1,1)	(0,4)	(5,2)	(2,1)	(382,1)	(-10,2)	(32,1)	(-2,1)	(1,0)	(1,0)	(1,0)	(1,0)	(1,0)	(1,0)	(1,0)	(1,0)	
L1D -422>	(2,59)	(34,2)	(406,1)	(37,1)	(28,1)	(6,1)	(421,1)	(410,2)	(418,1)	(0,1)	(-79,1)	(13,1)	(122,1)	(1,0)	(1,0)	(1,0)	
L1D -421>	(1,2)	(422,2)	(2,1)	(1,0)	(1,0)	(1,0)	(1,0)	(1,0)	(1,0)	(1,0)	(1,0)	(1,0)	(1,0)	(1,0)	(1,0)	(1,0)	
L1D -420>	(1,1)	(0,6)	(421,4)	(2,1)	(402,1)	(394,1)	(420,2)	(388,1)	(53,1)	(-4,1)	(-3,1)	(383,1)	(248,1)	(1,0)	(1,0)	(1,0)	
L1D -419>	(1,3)	(11,1)	(419,5)	(2,1)	(26,1)	(56,1)	(420,1)	(0,1)	(1,0)	(1,0)	(1,0)	(1,0)	(1,0)	(1,0)	(1,0)	(1,0)	
L1D -418>	(45,1)	(0,3)	(34,1)	(418,8)	(376,1)	(306,1)	(46,1)	(1,3)	(13,1)	(392,1)	(419,3)	(3,1)	(326,1)	(160,1)	(94,1)	(1,0)	
L1D -417>	(-10,106)	(417,1)	(31,1)	(1,0)	(1,0)	(1,0)	(1,0)	(1,0)	(1,0)	(1,0)	(1,0)	(1,0)	(1,0)	(1,0)	(1,0)	(1,0)	
L1D -416>	(0,1)	(415,1)	(53,1)	(416,6)	(-9,1)	(6,1)	(404,1)	(58,1)	(-20,1)	(417,2)	(324,1)	(-46,1)	(1,0)	(1,0)	(1,0)	(1,0)	
L1D -415>	(1,3)	(0,3)	(2,2)	(36,1)	(415,4)	(362,1)	(38,1)	(445,1)	(-1,1)	(62,1)	(414,1)	(1,0)	(1,0)	(1,0)	(1,0)	(1,0)	
L1D -414>	(414,3)	(69,1)	(61,2)	(1,4)	(0,3)	(23,1)	(238,1)	(17,1)	(34,1)	(11,1)	(2,1)	(5,1)	(100,1)	(53,1)	(402,2)	(380,1)	
L1D -413>	(1,6)	(2,5)	(0,3)	(413,4)	(-7,1)	(412,1)	(-1,1)	(153,1)	(414,2)	(11,3)	(5,1)	(1,0)	(1,0)	(1,0)	(1,0)	(1,0)	
L1D -412>	(61,1)	(0,4)	(310,1)	(412,7)	(-1,1)	(413,2)	(1,2)	(146,1)	(394,4)	(5,1)	(1,0)	(1,0)	(1,0)	(1,0)	(1,0)	(1,0)	
L1D -411>	(0,112)	(160,1)	(-7,13)	(408,0)	(1,0)	(1,0)	(1,0)	(1,0)	(1,0)	(1,0)	(1,0)	(1,0)	(1,0)	(1,0)	(1,0)	(1,0)	
L1D -410>	(53,1)	(410,7)	(0,6)	(1,2)	(146,1)	(5,1)	(429,1)	(384,1)	(382,1)	(409,1)	(420,1)	(103,1)	(3,2)	(-10,1)	(1,0)	(1,0)	
L1D -409>	(2,1)	(7,1)	(15,1)	(0,2)	(6,1)	(409,4)	(-1,1)	(1,1)	(-14,1)	(1,0)	(1,0)	(1,0)	(1,0)	(1,0)	(1,0)	(1,0)	
L1D -408>	(390,2)	(409,4)	(366,1)	(0,5)	(1,2)	(344,1)	(37,1)	(38,1)	(-1,1)	(408,1)	(1,0)	(1,0)	(1,0)	(1,0)	(1,0)	(1,0)	
L1D -407>	(1,6)	(56,2)	(388,1)	(454,1)	(-7,1)	(407,1)	(-30,1)	(198,1)	(-2,1)	(2,1)	(0,2)	(374,1)	(-13,1)	(1,0)	(1,0)	(1,0)	
L1D -406>	(-1,1)	(124,1)	(394,9)	(420,2)	(1,4)	(397,1)	(0,7)	(406,5)	(407,1)	(10,1)	(268,1)	(1,0)	(1,0)	(1,0)	(1,0)	(1,0)	
L1D -405>	(1,4)	(0,6)	(405,2)	(385,1)	(2,3)	(406,2)	(17,1)	(5,2)	(1,0)	(1,0)	(1,0)	(1,0)	(1,0)	(1,0)	(1,0)	(1,0)	
L1D -404>	(-1,1)	(405,3)	(-28,1)	(8,1)	(392,4)	(0,6)	(12,1)	(382,1)	(-10,1)	(2,2)	(1,1)	(404,1)	(1,0)	(1,0)	(1,0)	(1,0)	
L1D -403>	(1,2)	(-1,1)	(0,3)	(52,1)	(15,1)	(159,1)	(27,1)	(368,1)	(403,1)	(61,1)	(409,1)	(-10,1)	(1,0)	(1,0)	(1,0)	(1,0)	
L1D -402>	(0,7)	(238,1)	(-70,1)	(68,1)	(1,5)	(402,2)	(-2,1)	(396,1)	(-1,3)	(390,2)	(382,1)	(4,1)	(388,1)	(6,1)	(1,0)	(1,0)	
L1D -401>	(1,3)	(-10,3)	(0,3)	(11,1)	(2,2)	(401,4)	(56,1)	(1,0)	(1,0)	(1,0)	(1,0)	(1,0)	(1,0)	(1,0)	(1,0)	(1,0)	
L1D -400>	(0,6)	(392,1)	(2,1)	(-1,1)	(400,3)	(401,4)	(374,1)	(3,2)	(406,1)	(-86,1)	(260,1)	(399,1)	(1,2)	(16,1)	(1,0)	(1,0)	
L1D -399>	(1,2)	(5,2)	(399,3)	(304,1)	(400,1)	(17,1)	(0,4)	(-27,30)	(16,1)	(396,1)	(-1,1)	(1,0)	(1,0)	(1,0)	(1,0)	(1,0)	
L1D -398>	(-84,1)	(-95,1)	(4,1)	(502,1)	(1,3)	(386,1)	(406,1)	(0,5)	(32,1)	(17,1)	(398,4)	(85,1)	(388,1)	(395,1)	(146,1)	(-8,1)	
L1D -397>	(398,2)	(1,1)	(0,2)	(397,3)	(2,1)	(26,1)	(-43,1)	(1,0)	(1,0)	(1,0)	(1,0)	(1,0)	(1,0)	(1,0)	(1,0)	(1,0)	
L1D -396>	(1,4)	(0,4)	(28,1)	(5,2)	(396,5)	(397,2)	(-14,1)	(-58,1)	(-1,1)	(424,1)	(1,0)	(1,0)	(1,0)	(1,0)	(1,0)	(1,0)	
L1D -395>	(1,1)	(83,1)	(395,4)	(2,1)	(0,2)	(17,1)	(27,1)	(5,1)	(-1,1)	(-61,1)	(1,0)	(1,0)	(1,0)	(1,0)	(1,0)	(1,0)	
L1D -394>	(37,1)	(376,3)	(0,6)	(71,1)	(-1,2)	(408,1)	(3,1)	(394,2)	(330,1)	(1,2)	(2,1)	(413,1)	(13,1)	(-78,1)	(1,0)	(1,0)	
L1D -393>	(1,1)	(2,3)	(0,2)	(422,1)	(393,3)	(5,1)	(-7,1)	(1,0)	(1,0)	(1,0)	(1,0)	(1,0)	(1,0)	(1,0)	(1,0)	(1,0)	
L1D -392>	(393,3)	(392,1)	(1,4)	(0,1)	(160,1)	(5,2)	(391,1)	(380,1)	(1,0)	(1,0)	(1,0)	(1,0)	(1,0)	(1,0)	(1,0)	(1,0)	
L1D -391>	(1,1)	(29,1)	(391,2)	(-60,2)	(2,1)	(392,1)	(1,0)	(1,0)	(1,0)	(1,0)	(1,0)	(1,0)	(1,0)	(1,0)	(1,0)	(1,0)	
L1D -390>	(-2,1)	(389,2)	(-10,3)	(0,6)	(24,1)	(391,1)	(390,4)	(2,1)	(392,1)	(5,1)	(1,3)	(258,1)	(-1,1)	(324,1)	(364,1)	(3,1)	
L1D -389>	(0,3)	(-4,1)	(1,2)	(390,2)	(414,1)	(-69,1)	(-1,1)	(1,0)	(1,0)	(1,0)	(1,0)	(1,0)	(1,0)	(1,0)	(1,0)	(1,0)	
L1D -388>	(0,4)	(126,1)	(380,2)	(374,1)	(388,1)	(389,4)	(376,1)	(352,1)	(1,1)	(1,0)	(1,0)	(1,0)	(1,0)	(1,0)	(1,0)	(1,0)	
L1D -387>	(1,3)	(2,1)	(114,21)	(388,1)	(387,2)	(152,1)	(-10,1)	(56,2)	(-41,1)	(386,1)	(414,1)	(0,1)	(1,0)	(1,0)	(1,0)	(1,0)	
L1D -386>	(386,119)	(0,24)	(-31,21)	(-1,0)	(1,0)	(1,0)	(1,0)	(1,0)	(1,0)	(1,0)	(1,0)	(1,0)	(1,0)	(1,0)	(1,0)	(1,0)	
L1D -385>	(-6,1)	(386,1)	(385,3)	(2,1)	(150,1)	(0,2)	(1,0)	(1,0)	(1,0)	(1,0)	(1,0)	(1,0)	(1,0)	(1,0)	(1,0)	(1,0)	
L1D -384>	(1,3)	(372,2)	(406,1)	(13,2)	(68,1)	(358,1)	(351,1)	(385,2)	(410,1)	(403,1)	(1,0)	(1,0)	(1,0)	(1,0)	(1,0)	(1,0)	
L1D -383>	(0,4)	(90,2)	(382,1)	(383,2)	(-1,1)	(-2,1)	(1,0)	(1,0)	(1,0)	(1,0)	(1,0)	(1,0)	(1,0)	(1,0)	(1,0)	(1,0)	
L1D -382>	(394,1)	(388,2)	(0,3)	(382,3)	(146,1)	(-94,1)	(1,0)	(1,0)	(1,0)	(1,0)	(1,0)	(1,0)	(1,0)	(1,0)	(1,0)	(1,0)	
L1D -381>	(0,7)	(114,110)	(152,7)	(357,1)	(126,1)	(82,2)	(29,1)	(44,1)	(381,1)	(85,1)	(414,1)	(382,1)	(-4,1)	(1,0)	(1,0)	(1,0)	
L1D -380>	(380,4)	(-1,1)	(381,2)	(0,5)	(6,3)	(-38,1)	(1,2)	(18,1)	(-13,1)	(-2,1)	(13,1)	(218,1)	(1,0)	(1,0)	(1,0)	(1,0)	
L1D -379>	(379,2)	(0,3)	(-5,1)	(1,2)	(186,1)	(-21,1)	(2,1)	(-14,1)	(1,0)	(1,0)	(1,0)	(1,0)	(1,0)	(1,0)	(1,0)	(1,0)	
L1D -378>	(3,1)	(-1,1)	(0,4)	(160,1)	(-98,1)	(26,1)	(6,1)	(128,1)	(4,1)	(378,1)	(1,1)	(1,0)	(1,0)	(1,0)	(1,0)	(1,0)	
L1D -377>	(1,2)	(0,4)	(5,1)	(376,1)	(366,1)	(344,1)	(110,4)	(377,5)	(1,0)	(1,0)	(1,0)	(1,0)	(1,0)	(1,0)	(1,0)	(1,0)	
L1D -376>	(0,5)	(2,1)	(14,1)	(-8,1)	(377,3)	(1,2)	(364,1)	(382,1)	(1,0)	(1,0)	(1,0)	(1,0)	(1,0)	(1,0)	(1,0)	(1,0)	
L1D -375>	(2,1)	(1,3)	(338,1)	(87,1)	(0,5)	(124,1)	(375,1)	(448,1)	(13,1)	(1,0)	(1,0)	(1,0)	(1,0)	(1,0)	(1,0)	(1,0)	
L1D -374>	(6,2)	(1,5)	(18,1)	(30,1)	(50,2)	(2,1)	(0,3)	(222,1)	(1,0)	(1,0)	(1,0)	(1,0)	(1,0)	(1,0)	(1,0)	(1,0)	
L1D -373>	(1,2)	(6,3)	(0,4)	(3,1)	(121,1)	(373,2)	(4,1)	(5,1)	(1,0)	(1,0)	(1,0)	(1,0)	(1,0)	(1,0)	(1,0)	(1,0)	
L1D -372>	(3,1)	(0,4)	(2,3)	(-50,1)	(20,1)	(5,3)	(1,2)	(126,1)	(482,1)	(1,0)	(1,0)	(1,0)	(1,0)	(1,0)	(1,0)	(1,0)	
L1D -371>	(72,10)	(1,4)	(371,4)	(-1,1)	(0,8)	(127,1)	(-7,1)	(60,1)	(2,1)	(195,1)	(56,1)	(1,0)	(1,0)	(1,0)	(1,0)	(1,0)	
L1D -370>	(6,1)	(39,1)	(370,4)	(25,33)	(8,2)	(1,3)	(13,1)	(0,2)	(-28,1)	(192,1)	(3,1)	(2,1)	(416,1)	(1,0)	(1,0)	(1,0)	
L1D -369>	(-1,2)	(4,1)	(2,3)	(0,1)	(-7,1)	(369,1)	(412,1)	(1,0)	(1,0)	(1,0)	(1,0)	(1,0)	(1,0)	(1,0)	(1,0)	(1,0)	
L1D -368>	(0,6)	(368,3)	(-3,1)	(1,2)	(98,1)	(5,1)	(1,0)	(1,0)	(1,0)	(1,0)	(1,0)	(1,0)	(1,0)	(1,0)	(1,0)	(1,0)	
L1D -367>	(0,2)	(6,1)	(5,2)	(24,1)	(-1,1)	(62,1)	(1,2)	(-7,1)	(17,2)	(2,3)	(368,1)	(108,1)	(1,0)	(1,0)	(1,0)	(1,0)	
L1D -366>	(6,3)	(3,7)	(5,2)	(385,1)	(78,2)	(0,5)	(-18,1)	(320,1)	(1,1)	(4,1)	(370,1)	(418,1)	(1,0)	(1,0)	(1,0)	(1,0)	
L1D -365>	(60,15)	(369,1)	(-1,3)	(-3,1)	(4,1)	(0,4)	(335,1)	(366,2)	(1,1)	(365,3)	(362,1)	(1,0)	(1,0)	(1,0)	(1,0)	(1,0)	
L1D -364>	(52,71)	(50,12)	(51,65)	(363,23)	(78,1)	(49,2)	(364,4)	(0,4)	(352,1)	(-1,8)	(361,5)	(48,5)	(1,4)	(362,6)	(355,2)	(360,4)	
L1D -363>	(1,5)	(51,102)	(49,1)	(18,1)	(3,2)	(361,9)	(75,62)	(355,3)	(5,2)	(367,2)	(-7,1)	(196,1)	(2,1)	(-1,7)	(0,4)	(362,3)	
L1D -362>	(362,4)	(1,2)	(45,2)	(50,34)	(47,3)	(52,4)	(36,1)	(51,6)	(0,5)	(27,3)	(17,1)	(-8,1)	(-35,1)	(230,1)	(341,4)	(400,1)	
L1D -361>	(1,6)	(355,1)	(359,2)	(44,3)	(49,3)	(354,3)	(0,4)	(361,1)	(107,1)	(91,1)	(62,2)	(358,1)	(343,5)	(51,6)	(357,1)	(50,7)	
L1D -360>	(48,58)	(0,6)	(51,14)	(1,2)	(64,9)	(130,1)	(88,1)	(2,1)	(47,39)	(359,11)	(-1,7)	(358,6)	(36,1)	(46,1)	(6,5)	(357,5)	
L1D -359>	(60,77)	(364,1)	(47,27)	(0,2)	(39,3)	(347,1)	(35,2)	(-1,1)	(358,2)	(357,2)	(46,1)	(346,1)	(356,1)	(359,1)	(51,2)	(6,1)	
L1D -358>	(46,20)	(364,8)	(363,14)	(358,3)	(355,2)	(349,2)	(362,2)	(49,4)	(48,4)	(60,3)	(344,1)	(354,5)	(47,6)	(1,4)	(20,1)	(30,1)	
L1D -357>	(351,4)	(364,4)	(5,4)	(357,2)	(51,2)	(350,2)	(47,4)	(48,2)	(46,3)	(42,3)	(45,6)	(347,1)	(343,1)	(353,1)	(0,4)	(37,1)	
L1D -356>	(364,5)	(361,4)	(343,7)	(38,1)	(357,2)	(192,1)	(47,10)	(347,1)	(41,1)	(48,2)	(353,1)	(40,1)	(349,4)	(8,1)	(24,1)	(44,5)	
L1D -355>	(1,3)	(43,5)	(35,4)	(31,2)	(360,1)	(-13,1)	(359,3)	(355,3)	(356,2)	(136,1)	(347,1)	(47,3)	(2,2)	(44,1)	(353,2)	(342,2)	
L1D -354>	(52,3)	(364,4)	(1,4)	(45,6)	(359,6)	(335,1)	(44,2)	(69,1)	(348,1)	(360,3)	(47,1)	(0,8)	(352,1)	(11,1)	(-4,1)	(357,3)	
L1D -353>	(342,10)	(1,3)	(6,1)	(0,4)	(-16,1)	(47,3)	(64,1)	(343,1)	(347,1)	(360,5)	(348,1)	(349,4)	(362,2)	(41,6)	(107,1)	(355,1)	
L1D -352>	(162,1)	(-1,8)	(353,1)	(1,3)	(354,2)	(4,1)	(357,2)	(339,3)	(6,2)	(359,2)	(360,3)	(345,1)	(364,7)	(0,4)	(355,2)	(40,1)	
L1D -351>	(1,3)	(364,5)	(338,3)	(44,2)	(39,4)	(2,1)	(0,3)	(340,1)	(360,6)	(43,1)	(349,1)	(339,1)	(356,1)	(350,2)	(351,3)	(361,2)	
L1D -350>	(2,2)	(44,2)	(364,12)	(-3,1)	(39,1)	(48,1)	(360,2)	(119,1)	(0,4)	(353,1)	(350,1)	(89,1)	(38,2)	(362,2)	(349,1)	(363,1)	
L1D -349>	(361,1)	(68,1)	(351,3)	(0,4)	(81,1)	(-108,1)	(37,5)	(350,1)	(42,1)	(338,4)	(358,2)	(89,2)	(364,3)	(349,1)	(363,2)	(48,4)	
L1D -348>	(36,3)	(0,8)	(26,1)	(2,1)	(348,1)	(360,4)	(359,1)	(6,1)	(351,3)	(-74,1)	(1,2)	(3,1)	(50,2)	(-1,2)	(33,1)	(364,1)	
L1D -347>	(4,1)	(5,1)	(109,1)	(364,8)	(347,2)	(360,4)	(84,1)	(332,1)	(34,1)	(334,2)	(357,1)	(35,3)	(0,2)	(363,3)	(-1,1)	(64,1)	
L1D -346>	(341,23)	(4,98)	(0,7)	(359,0)	(298,0)	(364,0)	(348,0)	(363,0)	(1,0)	(1,0)	(1,0)	(1,0)	(1,0)	(1,0)	(1,0)	(1,0)	
L1D -345>	(2,5)	(1,2)	(0,4)	(-47,20)	(34,2)	(364,1)	(23,19)	(345,3)	(22,9)	(-22,1)	(21,1)	(-64,1)	(360,1)	(44,3)	(222,1)	(357,1)	
L1D -344>	(0,8)	(363,4)	(360,2)	(357,1)	(1,2)	(347,3)	(4,1)	(46,2)	(33,2)	(442,1)	(34,2)	(346,2)	(290,1)	(17,2)	(-2,2)	(32,16)	
L1D -343>	(1,1)	(338,105)	(-3,49)	(343,1)	(361,1)	(0,1)	(364,2)	(6,1)	(359,0)	(360,0)	(1,0)	(1,0)	(1,0)	(1,0)	(1,0)	(1,0)	
L1D -342>	(-4,26)	(1,7)	(345,4)	(0,6)	(364,3)	(337,22)	(313,12)	(20,1)	(342,5)	(-20,1)	(360,3)	(-12,1)	(-13,1)	(30,7)	(46,1)	(344,1)	
L1D -341>	(0,55)	(341,21)	(5,51)	(4,68)	(29,1)	(364,0)	(244,0)	(30,0)	(346,1)	(1,0)	(1,0)	(1,0)	(1,0)	(1,0)	(1,0)	(1,0)	
L1D -340>	(-1,4)	(4,2)	(0,12)	(1,5)	(3,1)	(359,2)	(334,2)	(28,2)	(360,2)	(29,1)	(339,2)	(27,1)	(337,3)	(39,1)	(364,7)	(-24,1)	
L1D -339>	(27,16)	(1,5)	(337,3)	(338,17)	(0,5)	(26,35)	(22,3)	(360,5)	(-1,14)	(25,3)	(23,6)	(-13,1)	(357,2)	(-20,1)	(336,7)	(46,1)	
L1D -338>	(1,15)	(-3,65)	(338,2)	(360,1)	(337,4)	(0,2)	(24,1)	(26,9)	(364,1)	(25,4)	(335,1)	(-1,0)	(339,1)	(52,0)	(343,10)	(23,3)	
L1D -337>	(342,79)	(104,4)	(117,104)	(-4,29)	(167,12)	(114,78)	(26,2)	(25,5)	(335,1)	(24,1)	(0,1)	(360,0)	(2,0)	(1,0)	(1,0)	(1,0)	
L1D -336>	(341,6)	(360,4)	(364,4)	(313,8)	(338,19)	(25,4)	(20,3)	(24,34)	(-28,5)	(220,1)	(38,2)	(336,1)	(335,3)	(0,5)	(50,2)	(282,1)	
L1D -335>	(23,14)	(0,3)	(313,7)	(334,12)	(6,1)	(24,1)	(315,1)	(18,1)	(162,1)	(34,1)	(360,2)	(92,1)	(336,1)	(4,3)	(91,1)	(26,1)	
L1D -334>	(0,5)	(1,2)	(22,9)	(313,8)	(24,1)	(360,2)	(23,1)	(336,2)	(27,2)	(332,1)	(338,6)	(384,1)	(-2,1)	(75,1)	(252,1)	(132,1)	
L1D -333>	(0,4)	(27,5)	(35,1)	(313,6)	(-36,1)	(1,3)	(-1,2)	(54,1)	(332,7)	(21,12)	(6,1)	(92,1)	(-61,2)	(294,1)	(2,2)	(114,2)	
L1D -332>	(20,18)	(1,4)	(333,4)	(332,1)	(-1,1)	(313,14)	(314,4)	(50,1)	(-18,1)	(22,5)	(0,2)	(290,1)	(1,0)	(1,0)	(1,0)	(1,0)	
L1D -331>	(1,7)	(331,8)	(325,2)	(2,1)	(4,3)	(19,16)	(330,3)	(0,4)	(29,2)	(313,4)	(490,1)	(144,1)	(-70,1)	(252,1)	(-1,1)	(-137,1)	
L1D -330>	(4,4)	(0,9)	(18,9)	(330,1)	(32,1)	(15,3)	(21,1)	(329,2)	(1,4)	(-27,1)	(-29,1)	(313,3)	(5,4)	(44,2)	(314,2)	(20,1)	
L1D -329>	(145,1)	(-1,2)	(1,2)	(-20,1)	(2,2)	(15,1)	(17,14)	(0,8)	(313,10)	(328,2)	(24,2)	(18,2)	(312,1)	(315,4)	(-28,1)	(324,1)	
L1D -328>	(15,71)	(22,59)	(16,2)	(328,1)	(4,1)	(54,0)	(0,1)	(313,0)	(1,0)	(1,0)	(1,0)	(1,0)	(1,0)	(1,0)	(1,0)	(1,0)	
L1D -327>	(1,1)	(0,7)	(15,14)	(222,1)	(454,1)	(56,1)	(313,16)	(325,5)	(14,3)	(-137,1)	(24,1)	(16,2)	(13,1)	(29,1)	(323,1)	(6,1)	
L1D -326>	(11,1)	(1,4)	(313,27)	(0,3)	(324,7)	(146,1)	(16,6)	(4,3)	(60,1)	(12,6)	(13,4)	(14,6)	(-138,1)	(20,1)	(321,1)	(326,1)	
L1D -325>	(58,2)	(13,98)	(-15,2)	(-14,17)	(0,2)	(60,4)	(-39,1)	(3,0)	(313,3)	(1,1)	(24,0)	(322,0)	(6,0)	(139,0)	(111,0)	(12,3)	
L1D -324>	(322,6)	(12,7)	(0,11)	(1,3)	(38,1)	(15,3)	(323,6)	(313,15)	(-21,5)	(-1,5)	(-46,1)	(58,3)	(60,3)	(-146,1)	(337,1)	(10,5)	
L1D -323>	(11,20)	(6,3)	(0,10)	(4,4)	(313,14)	(3,2)	(-69,1)	(-1,1)	(13,4)	(10,3)	(1,3)	(-34,1)	(322,1)	(12,5)	(-38,3)	(29,1)	
L1D -322>	(-4,6)	(0,9)	(86,1)	(-23,1)	(24,1)	(-36,1)	(10,22)	(313,14)	(326,6)	(146,5)	(1,1)	(-2,1)	(240,1)	(332,2)	(12,1)	(-98,1)	
L1D -321>	(1,4)	(146,1)	(0,11)	(120,1)	(321,1)	(10,4)	(24,2)	(9,6)	(313,4)	(-5,1)	(47,1)	(40,1)	(112,1)	(316,1)	(53,1)	(-41,2)	
L1D -320>	(19,2)	(-43,1)	(1,2)	(-40,1)	(330,1)	(24,1)	(0,14)	(320,4)	(323,1)	(-1,1)	(20,1)	(8,11)	(313,5)	(-37,1)	(-39,2)	(3,1)	
L1D -319>	(-18,28)	(1,1)	(0,5)	(318,5)	(316,1)	(320,1)	(20,3)	(24,1)	(6,3)	(317,11)	(-1,1)	(18,1)	(313,2)	(7,9)	(4,7)	(327,3)	
L1D -318>	(313,7)	(0,8)	(8,10)	(4,5)	(323,1)	(5,2)	(52,1)	(6,4)	(7,5)	(315,1)	(305,1)	(1,2)	(-19,1)	(26,1)	(374,1)	(316,28)	
L1D -317>	(-37,4)	(5,11)	(2,6)	(7,4)	(315,10)	(314,20)	(-46,6)	(316,20)	(1,13)	(0,11)	(-41,3)	(313,26)	(6,15)	(4,2)	(311,1)	(-42,14)	
L1D -316>	(309,1)	(313,114)	(297,2)	(310,12)	(4,18)	(3,3)	(5,2)	(1,2)	(19,1)	(314,22)	(320,17)	(-43,5)	(2,7)	(306,1)	(311,8)	(317,1)	
L1D -315>	(3,66)	(316,15)	(-45,14)	(-41,4)	(309,11)	(310,9)	(303,10)	(314,13)	(299,5)	(-25,5)	(-24,1)	(-49,22)	(315,7)	(311,37)	(312,7)	(302,3)	
L1D -314>	(2,33)	(311,24)	(313,12)	(312,23)	(316,13)	(293,3)	(304,17)	(310,26)	(5,13)	(-47,1)	(309,9)	(1,11)	(308,16)	(0,9)	(302,6)	(297,3)	
L1D -313>	(0,5)	(313,48)	(-2,9)	(-26,10)	(-44,1)	(314,20)	(1,12)	(309,18)	(311,67)	(305,10)	(317,2)	(308,10)	(298,10)	(312,25)	(300,9)	(310,40)	
L1D -312>	(311,78)	(7,7)	(313,47)	(-48,11)	(-27,2)	(300,19)	(316,35)	(3,22)	(308,31)	(318,43)	(326,13)	(309,68)	(323,19)	(10,10)	(315,73)	(307,18)	
L1D -311>	(294,28)	(-6,5)	(308,9)	(332,6)	(-37,3)	(-1,119)	(2,3)	(318,14)	(-32,1)	(319,9)	(324,2)	(14,3)	(288,1)	(314,23)	(5,5)	(313,28)	
L1D -310>	(313,6)	(-26,3)	(304,10)	(-2,86)	(309,8)	(302,3)	(311,7)	(3,3)	(315,4)	(7,1)	(322,2)	(-53,1)	(294,3)	(312,15)	(1,2)	(314,2)	
L1D -309>	(313,10)	(6,1)	(1,2)	(3,3)	(316,59)	(311,7)	(-3,45)	(312,8)	(305,4)	(-52,19)	(310,10)	(0,5)	(307,9)	(-13,2)	(11,2)	(-48,15)	
L1D -308>	(319,4)	(-48,5)	(-28,3)	(299,12)	(312,22)	(-4,21)	(0,10)	(-52,10)	(1,3)	(-24,3)	(308,1)	(311,21)	(310,8)	(-2,7)	(309,5)	(20,2)	
L1D -307>	(0,5)	(310,5)	(264,1)	(-5,14)	(258,1)	(312,8)	(-1,4)	(311,5)	(309,3)	(-27,3)	(320,2)	(307,2)	(-48,1)	(-4,3)	(316,1)	(10,1)	
L1D -306>	(0,80)	(-6,0)	(306,11)	(-1,1)	(310,0)	(-3,0)	(295,0)	(1,0)	(1,0)	(1,0)	(1,0)	(1,0)	(1,0)	(1,0)	(1,0)	(1,0)	
L1D -305>	(6,4)	(0,11)	(1,7)	(321,10)	(24,5)	(293,6)	(310,4)	(318,1)	(-7,10)	(307,10)	(43,3)	(-3,3)	(311,11)	(306,17)	(305,2)	(308,7)	
L1D -304>	(310,2)	(0,13)	(1,3)	(326,1)	(305,5)	(302,2)	(311,20)	(-6,4)	(306,9)	(20,5)	(312,1)	(-7,7)	(323,15)	(4,3)	(291,1)	(-8,17)	
L1D -303>	(-20,2)	(-9,16)	(-1,4)	(-4,3)	(306,3)	(323,11)	(3,2)	(0,11)	(24,2)	(311,13)	(305,3)	(-36,3)	(6,3)	(-48,2)	(308,4)	(-2,1)	
L1D -302>	(0,7)	(-39,2)	(291,84)	(304,6)	(312,4)	(-10,20)	(-35,3)	(311,7)	(1,3)	(308,2)	(323,5)	(-6,1)	(309,1)	(-9,3)	(295,1)	(146,2)	
L1D -301>	(2,2)	(6,6)	(0,9)	(326,5)	(-11,14)	(307,2)	(303,10)	(306,5)	(304,4)	(311,16)	(-4,10)	(-1,4)	(-10,1)	(325,10)	(294,1)	(-3,2)	
L1D -300>	(325,2)	(-11,2)	(301,5)	(-12,17)	(6,1)	(-38,2)	(311,9)	(1,3)	(-10,8)	(302,2)	(146,1)	(0,6)	(327,5)	(-1,4)	(305,2)	(-34,2)	
L1D -299>	(321,70)	(327,10)	(-2,3)	(-13,8)	(310,9)	(311,19)	(14,4)	(35,1)	(6,3)	(0,11)	(-11,8)	(2,6)	(301,4)	(324,3)	(1,4)	(-110,1)	
L1D -298>	(0,13)	(1,1)	(296,3)	(301,3)	(297,1)	(-14,19)	(110,1)	(2,1)	(-2,6)	(-106,1)	(299,10)	(311,6)	(313,1)	(298,1)	(146,1)	(152,1)	
L1D -297>	(26,8)	(-20,3)	(0,14)	(24,7)	(-15,18)	(327,12)	(6,5)	(-14,1)	(-2,1)	(297,2)	(225,1)	(-1,3)	(311,15)	(296,1)	(49,2)	(260,1)	
L1D -296>	(311,10)	(-2,4)	(-1,4)	(1,7)	(-16,7)	(291,23)	(298,3)	(309,2)	(-114,1)	(0,16)	(4,2)	(-66,2)	(294,2)	(299,1)	(297,6)	(19,3)	
L1D -295>	(0,5)	(1,4)	(6,11)	(301,51)	(311,9)	(77,1)	(-4,3)	(19,3)	(2,1)	(-17,16)	(18,1)	(47,1)	(309,2)	(297,3)	(299,1)	(-1,5)	
L1D -294>	(20,2)	(296,3)	(-18,3)	(1,4)	(0,13)	(311,12)	(295,11)	(14,12)	(-2,1)	(390,1)	(294,1)	(26,1)	(4,1)	(2,2)	(299,2)	(309,1)	
L1D -293>	(6,7)	(0,15)	(-19,6)	(-20,3)	(24,7)	(-1,1)	(1,6)	(-2,1)	(293,2)	(17,1)	(-6,1)	(26,3)	(315,1)	(297,1)	(5,1)	(35,1)	
L1D -292>	(-1,3)	(295,82)	(-20,1)	(293,14)	(1,5)	(32,1)	(4,1)	(297,1)	(0,11)	(6,4)	(311,1)	(2,2)	(19,6)	(-124,1)	(290,1)	(238,1)	
L1D -291>	(19,2)	(0,11)	(1,3)	(-20,7)	(20,1)	(210,1)	(-2,1)	(291,2)	(311,4)	(309,1)	(295,2)	(293,4)	(6,1)	(270,1)	(-21,3)	(292,6)	
L1D -290>	(-14,1)	(292,73)	(301,24)	(-22,8)	(1,5)	(0,12)	(2,6)	(293,1)	(291,1)	(309,1)	(14,2)	(-7,1)	(19,4)	(130,1)	(20,2)	(146,1)	
L1D -289>	(2,3)	(6,2)	(0,8)	(291,1)	(-22,2)	(-20,2)	(27,1)	(1,2)	(24,3)	(289,3)	(4,1)	(-23,1)	(-1,2)	(41,2)	(-2,1)	(1,0)	
L1D -288>	(2,3)	(120,1)	(1,5)	(0,15)	(6,3)	(418,1)	(20,1)	(4,3)	(-68,1)	(68,1)	(-20,2)	(184,1)	(306,1)	(24,1)	(5,1)	(289,5)	
L1D -287>	(286,1)	(0,20)	(283,1)	(24,4)	(287,1)	(2,3)	(18,1)	(-14,1)	(6,4)	(-25,3)	(422,1)	(26,1)	(262,1)	(289,1)	(291,3)	(396,1)	
L1D -286>	(-1,1)	(20,8)	(289,3)	(0,15)	(298,1)	(19,1)	(288,1)	(215,1)	(24,1)	(292,1)	(301,1)	(12,1)	(2,3)	(1,3)	(-26,1)	(262,1)	
L1D -285>	(6,7)	(3,10)	(0,13)	(2,1)	(24,3)	(1,5)	(285,3)	(-20,1)	(37,8)	(-64,1)	(13,1)	(289,1)	(270,1)	(242,1)	(1,0)	(1,0)	
L1D -284>	(0,11)	(4,1)	(-18,1)	(20,7)	(-160,1)	(1,3)	(-14,1)	(289,2)	(14,1)	(6,2)	(-1,1)	(19,4)	(282,1)	(5,1)	(17,1)	(146,1)	
L1D -283>	(12,2)	(311,1)	(268,1)	(19,2)	(238,1)	(0,16)	(285,3)	(334,1)	(-1,3)	(-34,1)	(6,1)	(250,1)	(272,1)	(24,1)	(2,4)	(23,1)	
L1D -282>	(262,1)	(2,1)	(19,12)	(20,6)	(-17,1)	(0,9)	(280,1)	(1,5)	(285,1)	(283,1)	(287,3)	(4,1)	(113,1)	(188,1)	(30,1)	(1,0)	
L1D -281>	(1,3)	(6,6)	(0,13)	(24,6)	(4,1)	(26,1)	(-121,1)	(-1,1)	(285,1)	(5,1)	(283,1)	(76,1)	(22,1)	(-20,2)	(29,1)	(-2,1)	
L1D -280>	(0,15)	(278,2)	(2,4)	(-20,4)	(4,2)	(304,1)	(283,3)	(20,1)	(280,1)	(1,1)	(6,1)	(12,2)	(250,1)	(-2,1)	(272,1)	(104,1)	
L1D -279>	(26,3)	(-20,4)	(24,9)	(0,20)	(1,4)	(6,1)	(8,22)	(7,2)	(2,1)	(281,2)	(283,5)	(18,1)	(276,1)	(-7,1)	(62,1)	(4,1)	
L1D -278>	(16,3)	(281,5)	(272,2)	(20,7)	(19,13)	(-6,3)	(0,10)	(1,1)	(278,1)	(2,2)	(283,3)	(-20,4)	(-174,1)	(314,1)	(6,1)	(12,2)	
L1D -277>	(0,96)	(277,3)	(273,31)	(240,1)	(296,0)	(248,0)	(-20,0)	(1,0)	(1,0)	(1,0)	(1,0)	(1,0)	(1,0)	(1,0)	(1,0)	(1,0)	
L1D -276>	(2,10)	(274,6)	(0,12)	(28,3)	(4,5)	(14,3)	(1,3)	(279,6)	(19,15)	(8,8)	(276,2)	(6,2)	(296,1)	(20,14)	(281,3)	(146,1)	
L1D -275>	(275,12)	(1,4)	(26,5)	(-20,2)	(0,29)	(8,5)	(6,5)	(-6,1)	(19,2)	(272,1)	(279,2)	(277,2)	(24,4)	(56,1)	(25,2)	(2,4)	
L1D -274>	(1,1)	(276,2)	(20,2)	(279,4)	(8,19)	(38,1)	(-20,2)	(0,14)	(4,1)	(2,16)	(264,1)	(-6,2)	(-120,1)	(-50,1)	(190,1)	(272,1)	
L1D -273>	(277,86)	(172,1)	(263,1)	(6,3)	(411,3)	(275,1)	(412,3)	(420,3)	(0,5)	(17,1)	(273,2)	(9,0)	(-20,0)	(264,0)	(1,1)	(1,0)	
L1D -272>	(0,18)	(272,4)	(50,2)	(295,1)	(270,7)	(4,3)	(275,4)	(-1,3)	(273,3)	(252,1)	(20,4)	(1,3)	(19,1)	(56,1)	(394,1)	(302,1)	
L1D -271>	(271,8)	(0,35)	(26,2)	(24,2)	(250,1)	(2,4)	(19,2)	(290,1)	(18,1)	(270,1)	(-1,2)	(1,4)	(6,2)	(275,2)	(-20,2)	(267,1)	
L1D -270>	(222,1)	(2,7)	(-6,1)	(273,3)	(0,10)	(3,1)	(295,1)	(7,1)	(275,3)	(-20,4)	(-88,1)	(20,16)	(241,1)	(-149,1)	(262,1)	(-18,1)	
L1D -269>	(26,4)	(269,4)	(3,119)	(249,1)	(6,2)	(271,1)	(0,7)	(1,1)	(19,1)	(268,6)	(-20,2)	(29,1)	(24,2)	(13,12)	(410,1)	(4,2)	
L1D -268>	(1,3)	(-26,2)	(5,6)	(20,22)	(0,14)	(6,3)	(2,23)	(19,42)	(269,25)	(268,6)	(292,2)	(-20,7)	(10,1)	(273,2)	(270,1)	(-73,3)	
L1D -267>	(1,5)	(420,71)	(412,63)	(269,3)	(416,1)	(24,8)	(411,25)	(238,1)	(29,3)	(0,13)	(263,9)	(-26,1)	(271,4)	(242,1)	(419,2)	(267,2)	
L1D -266>	(138,1)	(1,7)	(255,118)	(13,1)	(0,3)	(223,1)	(-20,2)	(4,2)	(19,1)	(268,1)	(277,1)	(269,1)	(2,1)	(20,0)	(-75,0)	(272,0)	
L1D -265>	(9,1)	(1,2)	(0,5)	(-1,1)	(138,1)	(6,1)	(2,2)	(-3,5)	(265,2)	(264,103)	(262,1)	(-6,0)	(17,0)	(208,0)	(24,2)	(-20,1)	
L1D -264>	(1,7)	(2,29)	(14,2)	(0,19)	(5,52)	(262,8)	(276,2)	(234,4)	(20,8)	(24,3)	(12,2)	(4,7)	(255,1)	(-26,2)	(206,2)	(146,1)	
L1D -263>	(234,1)	(265,1)	(24,15)	(26,5)	(1,18)	(0,32)	(263,4)	(432,1)	(277,1)	(267,1)	(-42,7)	(-20,3)	(2,2)	(-3,2)	(19,4)	(29,3)	
L1D -262>	(-119,1)	(274,1)	(20,6)	(2,1)	(-3,75)	(3,49)	(267,1)	(6,1)	(226,0)	(262,0)	(1,0)	(-20,1)	(19,1)	(263,0)	(322,0)	(0,2)	
L1D -261>	(24,7)	(26,25)	(6,6)	(0,17)	(1,6)	(3,2)	(-20,1)	(29,2)	(30,1)	(-1,1)	(261,6)	(260,1)	(252,2)	(10,5)	(224,1)	(364,1)	
L1D -260>	(0,4)	(2,3)	(-5,78)	(-26,1)	(1,3)	(-6,1)	(265,1)	(255,1)	(-20,1)	(20,4)	(4,1)	(6,1)	(292,1)	(-17,1)	(244,0)	(-2,0)	
L1D -259>	(6,1)	(13,2)	(239,1)	(0,4)	(261,1)	(1,1)	(220,2)	(24,1)	(265,107)	(29,0)	(259,1)	(250,0)	(260,0)	(-20,0)	(218,1)	(10,0)	
L1D -258>	(20,2)	(62,120)	(1,31)	(76,1)	(304,0)	(6,1)	(0,3)	(-20,0)	(219,0)	(2,0)	(186,0)	(1,0)	(1,0)	(1,0)	(1,0)	(1,0)	
L1D -257>	(0,53)	(98,79)	(97,1)	(99,3)	(6,0)	(60,93)	(-20,0)	(261,0)	(240,0)	(257,0)	(24,3)	(61,12)	(196,0)	(1,1)	(1,0)	(1,0)	
L1D -256>	(20,3)	(1,69)	(19,0)	(259,0)	(18,0)	(-20,0)	(4,0)	(0,1)	(257,0)	(255,0)	(251,8)	(-164,0)	(226,0)	(82,0)	(1,0)	(1,0)	
L1D -255>	(255,1)	(84,104)	(0,96)	(250,38)	(262,1)	(26,4)	(266,1)	(20,1)	(257,1)	(19,1)	(-9,0)	(42,0)	(259,2)	(22,0)	(-20,0)	(1,0)	
L1D -254>	(2,24)	(-12,10)	(257,3)	(-20,9)	(0,6)	(233,1)	(19,12)	(410,1)	(259,37)	(20,45)	(12,2)	(-34,3)	(255,1)	(4,2)	(254,2)	(28,1)	
L1D -253>	(-1,1)	(-26,1)	(253,12)	(1,8)	(6,3)	(29,1)	(0,18)	(3,1)	(7,1)	(-13,1)	(-22,2)	(-20,7)	(-18,1)	(17,1)	(252,2)	(20,1)	
L1D -252>	(2,7)	(-20,10)	(20,4)	(-26,2)	(0,6)	(13,1)	(19,8)	(-6,1)	(285,1)	(252,2)	(218,1)	(242,1)	(1,5)	(257,2)	(-12,3)	(288,1)	
L1D -251>	(3,1)	(-20,1)	(13,0)	(0,0)	(1,73)	(-31,0)	(-36,0)	(7,0)	(19,0)	(253,0)	(1,0)	(1,0)	(1,0)	(1,0)	(1,0)	(1,0)	
L1D -250>	(84,82)	(-18,4)	(1,5)	(-40,1)	(250,2)	(4,4)	(-26,1)	(257,2)	(2,15)	(19,5)	(0,11)	(-20,10)	(252,2)	(13,1)	(3,1)	(20,2)	
L1D -249>	(1,18)	(24,23)	(249,4)	(26,2)	(2,3)	(43,3)	(-20,3)	(19,5)	(-36,20)	(6,3)	(0,15)	(3,1)	(-10,1)	(-40,1)	(-48,3)	(31,1)	
L1D -248>	(4,4)	(2,8)	(-18,3)	(286,1)	(0,15)	(282,1)	(20,54)	(-26,1)	(-20,8)	(-37,8)	(344,1)	(246,2)	(19,14)	(250,2)	(3,5)	(1,2)	
L1D -247>	(26,38)	(247,19)	(-20,7)	(273,1)	(0,13)	(1,13)	(249,2)	(248,1)	(226,15)	(24,6)	(50,2)	(-14,1)	(243,2)	(146,1)	(22,2)	(240,1)	
L1D -246>	(246,5)	(-20,3)	(247,1)	(2,6)	(19,37)	(-18,3)	(-34,1)	(4,4)	(244,3)	(1,7)	(0,12)	(20,11)	(26,2)	(-1,2)	(-19,1)	(125,1)	
L1D -245>	(250,116)	(-6,23)	(245,2)	(2,1)	(0,4)	(13,30)	(26,0)	(41,0)	(24,3)	(240,0)	(247,3)	(-20,0)	(3,0)	(1,0)	(-32,0)	(1,0)	
L1D -244>	(19,3)	(0,9)	(14,1)	(-26,1)	(-20,6)	(-18,2)	(1,6)	(6,2)	(20,4)	(205,2)	(249,3)	(247,2)	(236,1)	(-102,1)	(272,1)	(245,1)	
L1D -243>	(3,76)	(0,6)	(2,2)	(24,4)	(245,1)	(13,7)	(6,1)	(234,1)	(4,1)	(236,2)	(242,1)	(204,1)	(-20,0)	(19,1)	(29,1)	(243,2)	
L1D -242>	(7,4)	(1,8)	(-26,3)	(2,10)	(235,4)	(0,19)	(-136,1)	(6,2)	(-20,4)	(20,8)	(19,1)	(-6,3)	(286,1)	(5,1)	(-1,1)	(184,1)	
L1D -241>	(24,23)	(241,20)	(26,39)	(1,4)	(-212,1)	(243,2)	(0,17)	(232,3)	(88,1)	(19,1)	(145,1)	(2,1)	(-20,9)	(248,1)	(-6,1)	(3,3)	
L1D -240>	(7,5)	(4,4)	(0,20)	(2,6)	(20,22)	(19,10)	(24,2)	(239,2)	(1,4)	(26,2)	(10,1)	(242,1)	(-20,2)	(241,4)	(6,1)	(243,1)	
L1D -239>	(239,47)	(-20,23)	(244,11)	(1,4)	(0,22)	(186,31)	(29,4)	(241,9)	(5,1)	(2,3)	(243,1)	(280,1)	(240,2)	(19,3)	(238,2)	(232,1)	
L1D -238>	(-20,1)	(-11,1)	(241,2)	(-26,1)	(0,18)	(2,7)	(238,7)	(60,1)	(12,39)	(20,13)	(1,35)	(231,2)	(277,1)	(208,1)	(5,1)	(226,1)	
L1D -237>	(-9,3)	(239,3)	(243,1)	(0,31)	(237,3)	(47,1)	(-20,8)	(6,4)	(342,1)	(7,2)	(-6,1)	(84,1)	(29,4)	(2,2)	(232,1)	(20,1)	
L1D -236>	(2,5)	(0,12)	(20,5)	(236,1)	(19,5)	(-18,1)	(6,2)	(326,1)	(241,3)	(264,1)	(229,3)	(1,8)	(238,1)	(400,1)	(256,1)	(-20,4)	
L1D -235>	(235,17)	(24,8)	(2,27)	(1,5)	(237,4)	(0,17)	(20,1)	(48,1)	(6,9)	(-20,7)	(29,3)	(374,3)	(-5,1)	(196,3)	(-22,2)	(-1,1)	
L1D -234>	(195,4)	(0,18)	(-18,6)	(-20,7)	(-6,5)	(1,5)	(35,2)	(20,4)	(275,1)	(19,7)	(2,3)	(258,1)	(-118,3)	(288,2)	(14,1)	(-104,1)	
L1D -233>	(-20,10)	(24,19)	(1,10)	(227,8)	(233,31)	(26,5)	(0,14)	(229,4)	(235,3)	(29,4)	(240,5)	(234,1)	(3,5)	(80,1)	(224,2)	(6,3)	
L1D -232>	(0,18)	(233,17)	(1,6)	(202,6)	(2,4)	(19,11)	(-14,2)	(320,1)	(-1,1)	(5,5)	(6,4)	(280,1)	(-20,14)	(20,10)	(186,2)	(-22,1)	
L1D -231>	(7,2)	(232,3)	(231,3)	(0,25)	(3,96)	(202,2)	(2,4)	(233,8)	(29,1)	(1,8)	(6,2)	(235,1)	(328,1)	(-20,4)	(224,1)	(24,2)	
L1D -230>	(2,9)	(0,14)	(38,1)	(233,2)	(-6,2)	(223,6)	(4,3)	(231,2)	(1,6)	(68,1)	(-22,1)	(-18,3)	(20,10)	(-14,1)	(229,3)	(186,1)	
L1D -229>	(0,81)	(374,8)	(24,2)	(-9,27)	(-26,1)	(26,2)	(7,5)	(231,3)	(2,3)	(230,1)	(3,1)	(236,0)	(6,1)	(-20,1)	(240,0)	(1,0)	
L1D -228>	(234,3)	(-27,10)	(256,1)	(261,2)	(19,1)	(0,15)	(230,7)	(254,1)	(-20,18)	(-18,5)	(221,1)	(52,1)	(269,1)	(3,3)	(1,2)	(140,1)	
L1D -227>	(227,28)	(0,17)	(-20,11)	(2,2)	(-98,1)	(1,16)	(188,20)	(180,92)	(6,4)	(47,2)	(229,6)	(20,2)	(24,1)	(49,1)	(5,1)	(19,2)	
L1D -226>	(2,4)	(6,6)	(-26,3)	(0,15)	(-3,5)	(38,1)	(1,7)	(232,2)	(194,1)	(292,1)	(246,1)	(187,7)	(20,2)	(286,1)	(102,1)	(-234,1)	
L1D -225>	(225,61)	(24,19)	(26,3)	(29,4)	(1,7)	(-20,29)	(19,3)	(0,14)	(-36,2)	(208,1)	(17,1)	(218,1)	(3,2)	(180,4)	(-6,2)	(412,1)	
L1D -224>	(20,17)	(0,18)	(-20,8)	(19,17)	(224,15)	(2,4)	(4,3)	(6,2)	(256,1)	(250,1)	(-6,2)	(225,6)	(146,1)	(-4,8)	(-70,1)	(1,3)	
L1D -223>	(0,20)	(225,7)	(2,13)	(40,1)	(223,22)	(186,1)	(7,7)	(-109,1)	(-20,17)	(227,1)	(252,1)	(-26,1)	(6,1)	(36,1)	(-1,2)	(159,2)	
L1D -222>	(1,6)	(253,1)	(0,15)	(225,1)	(2,11)	(222,4)	(248,2)	(-18,2)	(-20,13)	(-26,1)	(296,1)	(19,1)	(20,9)	(6,2)	(4,3)	(117,1)	
L1D -221>	(0,25)	(1,6)	(6,6)	(221,27)	(222,2)	(29,3)	(2,46)	(106,6)	(5,1)	(324,1)	(33,1)	(228,8)	(214,4)	(225,1)	(-20,4)	(-1,1)	
L1D -220>	(253,1)	(20,3)	(0,16)	(2,39)	(-26,5)	(-18,2)	(1,7)	(146,1)	(-7,1)	(-20,22)	(-264,1)	(6,1)	(227,2)	(74,1)	(280,1)	(225,2)	
L1D -219>	(6,3)	(29,1)	(219,71)	(0,32)	(19,4)	(2,99)	(-20,31)	(3,9)	(434,1)	(246,4)	(224,4)	(-132,1)	(237,1)	(13,1)	(412,1)	(221,1)	
L1D -218>	(28,1)	(-26,1)	(218,1)	(7,1)	(1,3)	(-5,1)	(2,22)	(0,15)	(117,1)	(4,4)	(34,1)	(276,2)	(219,2)	(210,1)	(272,1)	(290,1)	
L1D -217>	(217,4)	(19,4)	(32,2)	(1,7)	(-36,1)	(0,15)	(246,4)	(224,9)	(29,8)	(-1,2)	(5,1)	(26,11)	(2,4)	(240,1)	(-20,5)	(12,1)	
L1D -216>	(1,7)	(214,3)	(2,13)	(0,21)	(19,1)	(218,1)	(14,4)	(20,68)	(217,3)	(216,3)	(-12,1)	(32,1)	(4,4)	(28,1)	(270,1)	(-20,6)	
L1D -215>	(-20,1)	(260,1)	(1,2)	(222,1)	(0,14)	(98,99)	(2,7)	(6,1)	(24,0)	(5,0)	(217,2)	(140,0)	(1,0)	(1,0)	(1,0)	(1,0)	
L1D -214>	(0,120)	(4,0)	(1,6)	(19,0)	(-2,0)	(13,0)	(214,0)	(217,0)	(-20,1)	(213,0)	(219,0)	(276,0)	(20,0)	(1,0)	(1,0)	(1,0)	
L1D -213>	(2,0)	(1,2)	(0,66)	(213,0)	(211,0)	(220,0)	(-20,0)	(1,0)	(1,0)	(1,0)	(1,0)	(1,0)	(1,0)	(1,0)	(1,0)	(1,0)	
L1D -212>	(1,3)	(-20,17)	(392,1)	(0,26)	(3,8)	(272,1)	(294,1)	(253,1)	(245,2)	(6,2)	(4,3)	(-169,1)	(248,2)	(215,1)	(217,2)	(213,1)	
L1D -211>	(5,10)	(211,29)	(6,7)	(0,42)	(179,1)	(1,3)	(-20,13)	(24,3)	(29,5)	(352,1)	(212,9)	(378,1)	(92,1)	(20,2)	(215,1)	(2,1)	
L1D -210>	(0,25)	(216,5)	(35,1)	(7,1)	(4,2)	(256,1)	(-6,1)	(494,1)	(3,3)	(1,6)	(215,3)	(217,1)	(-12,2)	(-114,1)	(36,1)	(-11,1)	
L1D -209>	(29,11)	(26,61)	(1,4)	(0,35)	(24,14)	(6,2)	(252,1)	(216,2)	(2,1)	(209,5)	(208,2)	(28,1)	(19,4)	(-116,1)	(246,1)	(213,1)	
L1D -208>	(19,4)	(0,41)	(180,1)	(-26,1)	(-18,2)	(2,2)	(304,1)	(228,1)	(44,1)	(209,3)	(1,4)	(6,3)	(-1,1)	(146,1)	(117,1)	(-98,1)	
L1D -207>	(207,17)	(0,38)	(209,13)	(6,3)	(2,6)	(19,2)	(210,12)	(215,1)	(1,5)	(9,1)	(-26,1)	(196,2)	(208,3)	(230,1)	(-20,2)	(47,1)	
L1D -206>	(20,5)	(4,10)	(-20,2)	(-26,2)	(43,17)	(3,2)	(0,20)	(235,1)	(14,3)	(206,4)	(6,6)	(154,1)	(2,9)	(1,5)	(66,1)	(204,3)	
L1D -205>	(-20,2)	(0,54)	(88,1)	(6,14)	(198,2)	(212,9)	(-6,1)	(1,13)	(205,1)	(322,1)	(203,1)	(207,3)	(29,1)	(242,3)	(-26,1)	(234,2)	
L1D -204>	(0,28)	(4,1)	(-18,3)	(1,8)	(177,1)	(420,1)	(-34,1)	(-190,1)	(-20,1)	(209,1)	(18,1)	(117,1)	(-5,1)	(-125,1)	(346,1)	(256,1)	
L1D -203>	(1,6)	(203,27)	(204,2)	(2,5)	(0,31)	(374,1)	(-20,8)	(402,1)	(-6,2)	(6,5)	(3,1)	(24,1)	(27,4)	(1,0)	(1,0)	(1,0)	
L1D -202>	(2,51)	(180,3)	(24,5)	(208,66)	(1,54)	(0,20)	(26,1)	(6,4)	(-12,1)	(-20,3)	(248,2)	(-150,1)	(204,1)	(352,1)	(224,1)	(117,1)	
L1D -201>	(4,1)	(29,9)	(0,28)	(119,1)	(177,13)	(200,11)	(25,4)	(355,1)	(-20,2)	(244,1)	(2,2)	(1,3)	(318,1)	(218,1)	(17,1)	(208,1)	
L1D -200>	(23,8)	(206,38)	(0,18)	(177,18)	(178,75)	(198,21)	(24,31)	(6,1)	(318,1)	(-2,5)	(-34,1)	(194,1)	(402,1)	(-64,1)	(1,18)	(200,2)	
L1D -199>	(2,120)	(202,20)	(198,31)	(1,8)	(227,1)	(0,27)	(200,1)	(23,35)	(3,1)	(-20,4)	(5,2)	(-48,1)	(177,11)	(7,3)	(178,4)	(132,1)	
L1D -198>	(-18,6)	(-26,3)	(0,22)	(7,2)	(2,2)	(1,7)	(194,2)	(177,39)	(-35,1)	(130,1)	(-86,1)	(6,1)	(22,9)	(-214,1)	(197,7)	(227,5)	
L1D -197>	(124,1)	(2,24)	(202,0)	(3,1)	(1,95)	(177,20)	(198,0)	(0,5)	(21,12)	(196,3)	(-61,1)	(199,0)	(6,0)	(13,0)	(195,0)	(34,0)	
L1D -196>	(195,3)	(196,43)	(0,24)	(-18,9)	(4,1)	(-1,1)	(20,54)	(1,7)	(-14,4)	(227,1)	(177,24)	(-20,7)	(225,1)	(21,4)	(178,1)	(424,1)	
L1D -195>	(197,3)	(1,11)	(180,4)	(194,30)	(19,72)	(0,27)	(177,19)	(386,1)	(-20,2)	(200,1)	(292,1)	(195,13)	(13,1)	(193,2)	(178,1)	(3,1)	
L1D -194>	(-26,2)	(11,6)	(18,100)	(192,2)	(1,34)	(177,25)	(193,5)	(0,24)	(178,3)	(194,1)	(246,1)	(299,1)	(254,1)	(6,1)	(196,1)	(19,1)	
L1D -193>	(0,8)	(17,10)	(1,76)	(193,1)	(177,15)	(192,20)	(16,0)	(180,0)	(10,0)	(6,0)	(18,2)	(1,0)	(1,0)	(1,0)	(1,0)	(1,0)	
L1D -192>	(0,22)	(1,62)	(16,79)	(188,6)	(177,41)	(178,3)	(140,1)	(38,1)	(193,5)	(2,1)	(17,6)	(191,3)	(179,2)	(7,1)	(-20,1)	(229,1)	
L1D -191>	(193,7)	(1,13)	(11,1)	(0,14)	(16,25)	(177,62)	(15,104)	(152,1)	(179,6)	(172,1)	(6,2)	(2,18)	(190,37)	(180,13)	(3,4)	(14,5)	
L1D -190>	(1,8)	(2,9)	(6,93)	(189,25)	(14,46)	(178,2)	(177,38)	(0,14)	(11,9)	(179,11)	(5,4)	(9,2)	(44,2)	(186,1)	(188,3)	(32,1)	
L1D -189>	(10,1)	(1,127)	(6,22)	(13,34)	(0,18)	(188,6)	(33,8)	(11,3)	(190,25)	(187,20)	(8,5)	(195,5)	(178,11)	(177,26)	(14,7)	(212,4)	
L1D -188>	(185,0)	(9,0)	(12,3)	(17,0)	(211,0)	(-20,0)	(117,0)	(177,2)	(44,73)	(195,0)	(1,1)	(11,4)	(188,2)	(179,0)	(13,1)	(0,1)	
L1D -187>	(6,4)	(11,42)	(187,90)	(2,1)	(44,1)	(0,17)	(1,11)	(-20,29)	(10,17)	(176,10)	(12,17)	(-35,1)	(177,26)	(8,13)	(190,1)	(14,1)	
L1D -186>	(1,18)	(11,6)	(0,10)	(185,82)	(10,41)	(2,87)	(184,20)	(9,5)	(24,3)	(12,11)	(6,2)	(8,12)	(5,9)	(4,1)	(177,8)	(231,2)	
L1D -185>	(1,116)	(7,1)	(184,15)	(0,2)	(185,0)	(9,9)	(177,21)	(187,1)	(8,5)	(10,0)	(6,1)	(183,0)	(50,0)	(29,0)	(230,0)	(5,0)	
L1D -184>	(8,109)	(7,3)	(0,43)	(3,3)	(178,7)	(184,1)	(177,72)	(1,8)	(26,2)	(5,3)	(-1,11)	(6,23)	(4,9)	(182,22)	(183,47)	(21,7)	
L1D -183>	(0,29)	(4,8)	(2,49)	(190,12)	(8,34)	(7,34)	(188,5)	(9,15)	(177,11)	(179,23)	(182,10)	(6,21)	(193,8)	(180,1)	(181,14)	(1,3)	
L1D -182>	(180,17)	(188,15)	(-26,2)	(8,10)	(0,13)	(6,112)	(177,7)	(169,9)	(5,25)	(178,23)	(165,8)	(181,7)	(187,8)	(7,6)	(1,3)	(4,1)	
L1D -181>	(1,8)	(5,19)	(176,16)	(168,7)	(175,61)	(178,11)	(0,15)	(187,4)	(164,1)	(186,23)	(184,12)	(179,6)	(169,3)	(177,19)	(7,3)	(6,13)	
L1D -180>	(34,30)	(174,26)	(4,10)	(178,7)	(163,26)	(176,56)	(167,11)	(175,78)	(184,14)	(179,10)	(50,25)	(3,3)	(166,7)	(164,44)	(182,10)	(0,12)	
L1D -179>	(3,39)	(34,13)	(168,1)	(1,20)	(0,12)	(171,8)	(175,81)	(182,25)	(174,104)	(176,57)	(163,22)	(173,46)	(177,39)	(165,27)	(-2,11)	(170,18)	
L1D -178>	(167,7)	(176,34)	(0,8)	(171,8)	(-1,49)	(165,24)	(173,29)	(166,1)	(169,15)	(164,32)	(175,93)	(174,55)	(168,5)	(-3,9)	(161,7)	(170,10)	
L1D -177>	(174,35)	(177,24)	(1,29)	(168,34)	(166,1)	(171,52)	(-2,26)	(175,115)	(346,3)	(-1,59)	(173,51)	(-15,3)	(172,25)	(170,21)	(164,16)	(3,2)	
L1D -176>	(171,15)	(175,68)	(174,73)	(-2,8)	(173,35)	(169,12)	(178,32)	(172,35)	(177,47)	(165,11)	(3,8)	(181,1)	(170,23)	(186,12)	(-1,19)	(162,12)	
L1D -175>	(165,4)	(163,5)	(161,3)	(-1,78)	(178,12)	(177,7)	(176,4)	(6,10)	(171,5)	(188,1)	(172,8)	(183,4)	(179,2)	(167,2)	(170,20)	(173,7)	
L1D -174>	(87,11)	(1,26)	(28,20)	(168,101)	(0,35)	(2,6)	(175,17)	(178,65)	(50,16)	(-3,86)	(180,1)	(-2,15)	(160,2)	(177,31)	(174,8)	(172,5)	
L1D -173>	(159,2)	(-1,52)	(28,110)	(175,10)	(170,26)	(174,8)	(177,27)	(1,3)	(86,1)	(178,11)	(173,13)	(171,3)	(316,19)	(-3,47)	(176,15)	(179,8)	
L1D -172>	(2,8)	(173,6)	(178,9)	(180,34)	(171,99)	(169,1)	(-4,12)	(168,6)	(175,29)	(174,37)	(176,14)	(177,10)	(4,6)	(159,4)	(167,36)	(182,2)	
L1D -171>	(171,106)	(177,42)	(76,7)	(4,33)	(181,3)	(-3,5)	(173,11)	(172,10)	(175,2)	(-1,1)	(90,48)	(176,2)	(174,5)	(167,5)	(118,5)	(-4,27)	
L1D -170>	(33,88)	(170,4)	(-1,1)	(172,19)	(175,2)	(-168,7)	(0,9)	(6,72)	(169,104)	(20,1)	(-167,3)	(182,5)	(176,8)	(180,2)	(186,7)	(179,4)	
L1D -169>	(76,2)	(172,0)	(-174,0)	(173,0)	(179,0)	(-2,0)	(1,3)	(2,76)	(0,0)	(183,0)	(178,0)	(-7,1)	(171,1)	(182,0)	(175,1)	(27,0)	
L1D -168>	(173,10)	(-7,2)	(87,6)	(1,25)	(-2,1)	(-3,92)	(175,8)	(-1,2)	(338,1)	(343,74)	(181,1)	(176,2)	(-4,3)	(171,1)	(-8,3)	(0,2)	
L1D -167>	(-3,4)	(182,1)	(175,18)	(-4,12)	(166,51)	(0,7)	(86,127)	(167,16)	(74,4)	(176,3)	(171,3)	(168,2)	(-1,5)	(-9,11)	(190,4)	(169,23)	
L1D -166>	(-10,28)	(175,10)	(384,1)	(183,1)	(280,1)	(167,9)	(170,1)	(-4,86)	(-1,20)	(176,2)	(0,2)	(190,2)	(191,1)	(168,5)	(174,4)	(189,7)	
L1D -165>	(166,11)	(190,17)	(188,2)	(0,20)	(175,34)	(-1,19)	(72,86)	(-11,32)	(189,15)	(187,22)	(167,82)	(-2,26)	(-10,16)	(174,28)	(173,2)	(-9,9)	
L1D -164>	(-6,29)	(165,5)	(175,38)	(-12,63)	(169,74)	(166,16)	(-1,9)	(188,8)	(170,4)	(-11,17)	(-2,7)	(0,5)	(-3,10)	(164,2)	(173,7)	(2,1)	
L1D -163>	(27,3)	(164,17)	(-13,17)	(173,3)	(174,3)	(6,3)	(-1,7)	(184,5)	(162,1)	(0,4)	(29,1)	(165,73)	(-12,9)	(189,13)	(-11,1)	(175,20)	
L1D -162>	(163,49)	(-14,92)	(1,4)	(-1,3)	(172,24)	(190,23)	(54,42)	(164,64)	(162,4)	(166,22)	(175,63)	(76,6)	(176,14)	(173,7)	(-28,2)	(-3,1)	
L1D -161>	(0,21)	(162,27)	(-14,36)	(191,2)	(-15,12)	(175,18)	(-1,5)	(1,0)	(164,1)	(24,0)	(163,66)	(174,4)	(172,20)	(128,0)	(-8,0)	(169,2)	
L1D -160>	(392,1)	(175,2)	(161,1)	(12,1)	(0,1)	(-1,2)	(-13,1)	(157,1)	(174,3)	(1,0)	(159,112)	(8,0)	(-16,3)	(162,2)	(18,0)	(26,0)	
L1D -159>	(-99,124)	(-98,7)	(1,1)	(-3,2)	(158,26)	(160,7)	(-17,4)	(0,1)	(161,8)	(172,1)	(410,1)	(174,10)	(156,1)	(-2,5)	(173,0)	(175,6)	
L1D -158>	(1,5)	(-46,40)	(175,49)	(157,3)	(0,10)	(-18,55)	(-1,43)	(158,4)	(-35,3)	(174,14)	(6,5)	(-3,5)	(61,1)	(98,1)	(-10,1)	(-15,5)	
L1D -157>	(0,6)	(118,4)	(-19,5)	(3,92)	(157,8)	(183,1)	(2,3)	(172,2)	(-16,10)	(13,5)	(-1,19)	(158,3)	(159,9)	(-18,4)	(-2,5)	(6,2)	
L1D -156>	(-19,4)	(0,13)	(175,2)	(158,2)	(64,71)	(159,6)	(153,1)	(174,13)	(157,7)	(152,5)	(3,4)	(371,1)	(-3,12)	(-18,1)	(-20,2)	(155,1)	
L1D -155>	(-21,5)	(-3,7)	(-20,38)	(155,5)	(1,3)	(0,7)	(154,2)	(-1,13)	(17,3)	(157,1)	(25,1)	(2,2)	(153,1)	(173,1)	(219,1)	(12,1)	
L1D -154>	(94,54)	(142,2)	(153,75)	(92,13)	(150,7)	(-19,3)	(93,85)	(-1,23)	(152,23)	(151,2)	(144,3)	(148,12)	(173,1)	(-20,5)	(146,8)	(145,4)	
L1D -153>	(93,78)	(150,5)	(142,1)	(90,3)	(-1,3)	(91,7)	(144,3)	(145,2)	(92,5)	(152,3)	(94,8)	(153,5)	(151,1)	(157,1)	(78,4)	(87,2)	
L1D -152>	(92,62)	(0,5)	(93,76)	(-21,2)	(150,4)	(149,1)	(-1,8)	(137,2)	(89,14)	(90,2)	(91,6)	(141,1)	(145,4)	(140,1)	(79,6)	(143,1)	
L1D -151>	(-25,0)	(142,0)	(150,114)	(13,0)	(1,0)	(88,1)	(140,0)	(14,0)	(146,0)	(154,0)	(89,1)	(149,0)	(145,0)	(93,2)	(139,0)	(90,0)	
L1D -150>	(90,13)	(12,4)	(148,7)	(139,4)	(144,4)	(154,7)	(-26,10)	(149,78)	(91,11)	(147,4)	(83,1)	(89,16)	(88,9)	(87,3)	(86,2)	(142,6)	
L1D -149>	(13,12)	(0,13)	(-10,91)	(1,11)	(89,12)	(11,80)	(147,9)	(90,17)	(154,9)	(138,36)	(3,78)	(140,16)	(139,12)	(-1,12)	(145,23)	(153,1)	
L1D -148>	(147,42)	(151,2)	(56,116)	(145,3)	(133,2)	(71,1)	(93,7)	(139,2)	(10,13)	(83,1)	(94,4)	(90,8)	(153,4)	(148,20)	(-1,1)	(3,1)	
L1D -147>	(141,7)	(142,1)	(91,1)	(29,1)	(146,125)	(145,0)	(148,0)	(133,0)	(154,0)	(89,0)	(-33,2)	(17,0)	(9,1)	(93,0)	(143,0)	(88,0)	
L1D -146>	(9,25)	(-33,4)	(145,32)	(142,1)	(99,2)	(104,66)	(-1,1)	(144,5)	(139,4)	(154,3)	(98,2)	(87,1)	(103,7)	(143,0)	(2,10)	(102,6)	
L1D -145>	(143,7)	(102,9)	(5,11)	(103,120)	(154,17)	(12,15)	(7,21)	(1,21)	(-14,1)	(133,10)	(141,7)	(144,4)	(-1,6)	(96,8)	(104,38)	(130,2)	
L1D -144>	(3,1)	(7,107)	(102,69)	(144,10)	(1,91)	(0,90)	(86,7)	(-26,24)	(145,4)	(143,21)	(104,28)	(177,2)	(142,7)	(141,11)	(137,7)	(147,3)	
L1D -143>	(-1,27)	(142,82)	(19,13)	(0,22)	(141,1)	(101,27)	(104,47)	(145,7)	(99,31)	(100,33)	(134,37)	(132,66)	(154,32)	(94,21)	(144,53)	(103,53)	
L1D -142>	(136,102)	(100,8)	(137,38)	(101,1)	(141,3)	(98,7)	(102,5)	(138,18)	(3,4)	(103,3)	(99,9)	(4,1)	(1,3)	(-4,1)	(127,2)	(83,3)	
L1D -141>	(90,4)	(-1,3)	(99,7)	(154,1)	(98,9)	(137,9)	(3,32)	(130,6)	(128,11)	(139,86)	(103,5)	(140,4)	(100,26)	(136,33)	(127,5)	(135,2)	
L1D -140>	(0,6)	(2,4)	(139,11)	(137,100)	(-4,15)	(129,6)	(97,6)	(-10,22)	(145,8)	(100,12)	(136,19)	(132,14)	(125,9)	(98,1)	(-1,7)	(154,30)	
L1D -139>	(154,9)	(-1,4)	(138,35)	(172,1)	(137,38)	(3,4)	(132,7)	(150,8)	(100,4)	(1,65)	(140,9)	(135,9)	(125,8)	(136,88)	(131,4)	(143,9)	
L1D -138>	(137,33)	(138,35)	(141,33)	(136,54)	(133,14)	(139,62)	(4,15)	(143,31)	(135,20)	(140,79)	(134,44)	(142,15)	(2,19)	(145,10)	(-35,1)	(131,9)	
L1D -137>	(0,6)	(200,1)	(-33,19)	(142,3)	(104,1)	(139,7)	(9,4)	(-7,84)	(77,1)	(1,2)	(3,2)	(-3,1)	(140,4)	(-1,3)	(138,37)	(4,2)	
L1D -136>	(0,41)	(136,21)	(139,9)	(140,6)	(134,6)	(1,46)	(-2,12)	(44,84)	(132,7)	(127,1)	(2,6)	(121,8)	(146,9)	(143,9)	(142,9)	(137,13)	
L1D -135>	(0,5)	(1,2)	(6,6)	(143,2)	(76,1)	(124,5)	(137,4)	(-1,1)	(133,7)	(134,3)	(-2,3)	(2,66)	(154,2)	(146,8)	(136,3)	(138,13)	
L1D -134>	(87,1)	(128,15)	(-1,39)	(129,11)	(121,10)	(126,4)	(92,51)	(133,69)	(132,42)	(131,24)	(130,24)	(111,37)	(122,15)	(124,5)	(125,9)	(127,8)	
L1D -133>	(132,74)	(133,40)	(131,42)	(-1,47)	(129,27)	(154,11)	(91,78)	(130,19)	(53,1)	(51,29)	(92,12)	(127,15)	(134,10)	(1,14)	(90,8)	(166,9)	
L1D -132>	(147,1)	(6,97)	(90,79)	(134,21)	(133,99)	(-1,59)	(92,22)	(129,14)	(131,60)	(130,51)	(72,22)	(145,11)	(126,34)	(179,27)	(125,16)	(128,17)	
L1D -131>	(6,17)	(130,78)	(-1,41)	(89,94)	(132,48)	(1,63)	(119,1)	(129,67)	(126,29)	(133,46)	(0,8)	(125,10)	(91,24)	(154,42)	(146,48)	(122,7)	
L1D -130>	(88,27)	(129,20)	(133,67)	(-1,4)	(124,19)	(123,19)	(125,41)	(1,10)	(131,11)	(85,31)	(126,1)	(73,4)	(122,15)	(132,21)	(134,15)	(0,4)	
L1D -129>	(128,40)	(125,8)	(130,11)	(-9,24)	(98,14)	(132,67)	(134,45)	(127,28)	(0,6)	(143,1)	(116,16)	(-1,14)	(119,13)	(131,112)	(90,7)	(117,28)	
L1D -128>	(1,40)	(130,16)	(0,13)	(132,7)	(129,15)	(133,107)	(134,37)	(87,18)	(154,14)	(86,7)	(99,9)	(2,4)	(131,26)	(81,1)	(128,17)	(119,8)	
L1D -127>	(-75,96)	(125,16)	(146,15)	(117,30)	(154,47)	(131,90)	(128,7)	(144,23)	(145,28)	(102,1)	(103,26)	(133,54)	(-11,10)	(134,79)	(129,41)	(87,30)	
L1D -126>	(179,5)	(117,41)	(84,124)	(121,11)	(159,1)	(111,77)	(82,18)	(122,18)	(6,25)	(134,20)	(120,25)	(125,51)	(-1,34)	(119,86)	(123,58)	(124,39)	
L1D -125>	(134,37)	(124,80)	(123,53)	(-1,58)	(43,30)	(126,1)	(4,5)	(120,21)	(83,58)	(125,37)	(8,22)	(121,25)	(66,22)	(122,50)	(119,35)	(118,6)	
L1D -124>	(129,4)	(82,94)	(123,17)	(122,34)	(-1,99)	(127,14)	(134,57)	(21,36)	(120,8)	(125,56)	(130,12)	(8,7)	(80,27)	(116,1)	(117,37)	(114,4)	
L1D -123>	(132,5)	(-1,14)	(111,1)	(105,15)	(124,8)	(80,2)	(125,2)	(83,2)	(81,19)	(1,123)	(121,2)	(131,3)	(84,2)	(82,3)	(130,1)	(120,1)	
L1D -122>	(121,19)	(117,127)	(124,10)	(8,21)	(80,19)	(-1,11)	(130,1)	(134,10)	(119,18)	(133,13)	(4,28)	(111,5)	(120,36)	(6,82)	(83,8)	(125,35)	
L1D -121>	(122,8)	(77,1)	(123,39)	(117,9)	(119,42)	(120,42)	(121,45)	(-1,27)	(124,24)	(126,19)	(118,27)	(125,9)	(79,67)	(39,6)	(132,9)	(80,15)	
L1D -120>	(121,12)	(103,112)	(118,14)	(123,1)	(133,42)	(78,35)	(2,2)	(-1,61)	(117,6)	(119,20)	(146,17)	(120,20)	(116,4)	(134,38)	(6,10)	(4,2)	
L1D -119>	(120,23)	(125,44)	(122,7)	(117,79)	(116,46)	(134,38)	(78,7)	(79,4)	(126,3)	(118,11)	(124,19)	(-1,72)	(119,10)	(121,18)	(132,1)	(77,50)	
L1D -118>	(-1,72)	(115,41)	(119,3)	(121,3)	(76,36)	(134,7)	(111,48)	(113,26)	(61,1)	(116,60)	(80,2)	(114,40)	(117,102)	(125,2)	(2,45)	(75,4)	
L1D -117>	(71,15)	(34,9)	(35,90)	(82,13)	(116,17)	(134,1)	(-5,16)	(121,15)	(118,3)	(115,12)	(75,14)	(150,4)	(114,6)	(120,5)	(117,11)	(-1,25)	
L1D -116>	(76,1)	(122,0)	(74,2)	(118,2)	(117,2)	(109,0)	(81,0)	(121,0)	(1,0)	(149,0)	(-7,0)	(111,0)	(105,123)	(119,0)	(-1,1)	(116,0)	
L1D -115>	(-5,8)	(-76,1)	(80,9)	(-1,3)	(116,2)	(55,77)	(75,0)	(69,2)	(134,0)	(98,3)	(121,0)	(115,1)	(73,12)	(117,6)	(118,4)	(-19,2)	
L1D -114>	(111,68)	(109,1)	(115,1)	(114,1)	(-1,0)	(72,0)	(44,20)	(2,1)	(116,1)	(76,12)	(-190,0)	(117,5)	(80,1)	(113,1)	(0,0)	(97,0)	
L1D -113>	(146,9)	(67,2)	(111,1)	(78,1)	(278,0)	(113,0)	(-50,0)	(-9,3)	(108,0)	(114,0)	(2,3)	(344,0)	(84,104)	(42,27)	(118,0)	(116,0)	
L1D -112>	(86,13)	(-4,30)	(113,68)	(117,12)	(112,11)	(109,24)	(0,15)	(314,1)	(98,1)	(111,2)	(-26,1)	(145,53)	(-1,3)	(-2,1)	(2,2)	(1,4)	
L1D -111>	(112,5)	(93,76)	(45,41)	(-2,2)	(-1,3)	(6,10)	(1,4)	(62,1)	(142,1)	(98,16)	(100,11)	(390,1)	(-64,1)	(111,9)	(109,1)	(0,7)	
L1D -110>	(1,5)	(60,2)	(0,83)	(111,102)	(105,22)	(110,3)	(78,4)	(-1,9)	(9,1)	(478,1)	(7,1)	(99,4)	(2,3)	(-108,0)	(97,5)	(98,5)	
L1D -109>	(115,14)	(7,8)	(109,2)	(98,3)	(100,4)	(1,9)	(424,1)	(97,18)	(0,9)	(-63,1)	(89,1)	(-20,1)	(110,1)	(99,64)	(-1,2)	(6,1)	
L1D -108>	(107,3)	(-54,40)	(-81,1)	(-10,37)	(-6,5)	(0,34)	(78,79)	(108,2)	(43,0)	(60,0)	(-118,0)	(-106,0)	(-1,1)	(109,0)	(99,0)	(97,5)	
L1D -107>	(108,8)	(6,0)	(49,0)	(-18,0)	(24,0)	(65,73)	(0,0)	(2,0)	(-19,0)	(-15,0)	(107,0)	(106,0)	(-106,1)	(1,0)	(1,0)	(1,0)	
L1D -106>	(1,98)	(0,2)	(109,1)	(117,1)	(-16,0)	(64,1)	(106,1)	(96,0)	(107,0)	(5,0)	(111,0)	(24,0)	(1,0)	(1,0)	(1,0)	(1,0)	
L1D -105>	(105,3)	(0,27)	(-4,28)	(86,8)	(113,1)	(112,1)	(139,1)	(-2,1)	(7,113)	(103,1)	(-64,0)	(-328,89)	(106,3)	(2,0)	(127,0)	(1,3)	
L1D -104>	(132,1)	(144,8)	(126,0)	(102,5)	(100,0)	(101,1)	(99,0)	(103,7)	(-1,6)	(127,0)	(145,5)	(141,2)	(142,1)	(125,0)	(109,64)	(143,5)	
L1D -103>	(60,84)	(103,2)	(-1,5)	(133,0)	(102,0)	(143,0)	(63,8)	(99,0)	(130,0)	(145,2)	(144,0)	(100,0)	(139,0)	(-10,0)	(146,1)	(7,1)	
L1D -102>	(143,73)	(144,54)	(146,82)	(1,5)	(133,9)	(-1,26)	(145,124)	(136,1)	(101,22)	(140,26)	(99,17)	(98,29)	(139,34)	(90,10)	(102,36)	(100,18)	
L1D -101>	(141,31)	(1,3)	(143,5)	(136,2)	(144,8)	(145,74)	(140,16)	(139,1)	(142,17)	(102,37)	(0,4)	(103,3)	(146,22)	(101,2)	(100,18)	(98,12)	
L1D -100>	(141,49)	(145,78)	(96,8)	(102,22)	(-1,10)	(98,24)	(89,29)	(104,18)	(1,23)	(143,15)	(101,11)	(142,23)	(95,10)	(146,19)	(99,1)	(135,22)	
L1D -99>	(0,64)	(141,1)	(62,112)	(24,27)	(99,27)	(60,13)	(98,5)	(61,3)	(145,2)	(94,1)	(146,2)	(78,14)	(87,4)	(142,1)	(89,8)	(101,7)	
L1D -98>	(98,84)	(-1,17)	(0,83)	(60,117)	(78,92)	(142,6)	(28,10)	(97,11)	(146,4)	(125,1)	(99,7)	(141,2)	(24,3)	(29,2)	(8,1)	(140,1)	
L1D -97>	(93,2)	(103,0)	(98,29)	(29,21)	(142,4)	(102,9)	(-1,70)	(141,6)	(97,5)	(100,3)	(1,8)	(143,2)	(140,10)	(138,4)	(99,4)	(104,5)	
L1D -96>	(-29,84)	(102,1)	(139,0)	(143,0)	(94,0)	(-9,1)	(98,1)	(101,0)	(127,0)	(107,1)	(88,0)	(146,0)	(131,0)	(1,0)	(125,0)	(17,0)	
L1D -95>	(-29,22)	(146,3)	(150,69)	(142,1)	(91,4)	(97,6)	(138,3)	(125,4)	(143,6)	(141,5)	(144,1)	(139,2)	(92,3)	(94,1)	(98,1)	(90,3)	
L1D -94>	(91,21)	(51,91)	(153,26)	(154,45)	(92,20)	(152,47)	(1,111)	(150,16)	(88,10)	(89,11)	(148,1)	(93,35)	(151,25)	(-1,22)	(52,63)	(90,12)	
L1D -93>	(119,1)	(51,61)	(-29,33)	(92,5)	(136,5)	(-8,43)	(52,3)	(-1,4)	(88,4)	(1,72)	(154,5)	(146,5)	(93,16)	(90,15)	(0,24)	(49,4)	
L1D -92>	(-1,46)	(120,1)	(-9,35)	(93,47)	(90,114)	(133,25)	(130,18)	(132,45)	(131,44)	(52,15)	(91,68)	(146,31)	(151,24)	(51,73)	(50,75)	(150,17)	
L1D -91>	(91,12)	(96,111)	(49,12)	(150,23)	(89,11)	(79,6)	(90,23)	(-1,16)	(1,5)	(146,10)	(129,1)	(48,10)	(153,20)	(50,6)	(51,47)	(132,17)	
L1D -90>	(48,7)	(-1,19)	(133,17)	(91,90)	(153,14)	(154,5)	(134,12)	(1,9)	(87,4)	(146,13)	(47,17)	(76,5)	(0,4)	(93,36)	(46,5)	(132,1)	
L1D -89>	(98,4)	(0,3)	(10,2)	(148,4)	(130,11)	(84,70)	(133,29)	(91,6)	(132,14)	(87,11)	(146,21)	(94,9)	(153,5)	(144,1)	(90,11)	(85,9)	
L1D -88>	(6,31)	(0,95)	(124,1)	(129,7)	(52,3)	(146,8)	(47,7)	(154,6)	(89,10)	(83,4)	(51,5)	(84,4)	(1,124)	(26,12)	(133,28)	(131,6)	
L1D -87>	(98,76)	(146,12)	(90,10)	(89,9)	(47,2)	(0,50)	(130,7)	(52,7)	(27,1)	(144,2)	(1,8)	(51,6)	(91,3)	(148,1)	(94,2)	(133,8)	
L1D -86>	(46,20)	(-1,28)	(87,54)	(94,84)	(130,56)	(134,42)	(88,60)	(49,34)	(45,27)	(-4,22)	(129,34)	(153,1)	(17,50)	(1,38)	(73,26)	(83,20)	
L1D -85>	(90,18)	(73,12)	(-8,86)	(107,10)	(50,3)	(94,30)	(1,25)	(83,7)	(82,6)	(128,13)	(130,1)	(150,11)	(44,16)	(92,9)	(129,15)	(133,12)	
L1D -84>	(83,79)	(43,9)	(151,8)	(125,46)	(51,9)	(146,58)	(129,28)	(94,36)	(0,41)	(127,15)	(154,43)	(-1,79)	(15,8)	(85,21)	(82,55)	(104,1)	
L1D -83>	(82,110)	(-9,77)	(1,8)	(-5,16)	(152,1)	(-1,22)	(84,11)	(138,55)	(72,7)	(154,11)	(31,24)	(79,14)	(80,15)	(122,21)	(81,11)	(124,18)	
L1D -82>	(81,14)	(144,1)	(117,42)	(79,2)	(126,2)	(122,2)	(127,2)	(5,8)	(8,6)	(125,11)	(6,103)	(-1,24)	(1,3)	(4,29)	(134,7)	(2,22)	
L1D -81>	(75,3)	(83,16)	(124,26)	(81,15)	(-7,62)	(82,20)	(116,49)	(91,11)	(126,15)	(142,8)	(-1,35)	(78,103)	(140,1)	(76,14)	(1,8)	(125,45)	
L1D -80>	(115,108)	(134,6)	(-1,13)	(81,11)	(154,9)	(77,12)	(31,21)	(123,18)	(2,27)	(146,7)	(125,25)	(153,10)	(63,5)	(139,1)	(3,10)	(83,13)	
L1D -79>	(61,24)	(76,38)	(-14,5)	(78,15)	(118,13)	(124,19)	(-1,26)	(77,23)	(83,17)	(1,63)	(111,87)	(146,8)	(123,1)	(81,26)	(75,16)	(125,16)	
L1D -78>	(60,113)	(0,75)	(87,12)	(-1,14)	(80,7)	(73,2)	(133,5)	(98,16)	(99,9)	(82,9)	(113,15)	(91,1)	(121,7)	(76,8)	(89,7)	(75,8)	
L1D -77>	(17,7)	(152,1)	(1,124)	(78,26)	(117,20)	(120,25)	(4,2)	(74,7)	(121,20)	(72,4)	(73,21)	(93,5)	(-1,16)	(94,10)	(79,62)	(82,7)	
L1D -76>	(52,1)	(79,8)	(50,6)	(77,7)	(134,58)	(115,18)	(117,14)	(75,88)	(73,59)	(74,27)	(1,3)	(146,12)	(120,6)	(2,11)	(-1,40)	(41,9)	
L1D -75>	(2,6)	(119,1)	(118,54)	(33,6)	(61,32)	(35,38)	(77,62)	(120,8)	(18,7)	(34,103)	(76,11)	(113,11)	(1,21)	(94,20)	(154,49)	(0,83)	
L1D -74>	(17,17)	(94,8)	(-1,42)	(120,13)	(75,119)	(73,13)	(111,67)	(41,5)	(44,26)	(69,45)	(61,22)	(89,1)	(72,3)	(32,81)	(43,5)	(76,13)	
L1D -73>	(94,14)	(128,64)	(116,61)	(-1,18)	(134,9)	(74,15)	(31,4)	(13,11)	(28,1)	(21,62)	(118,74)	(73,5)	(75,12)	(130,6)	(71,10)	(91,4)	
L1D -72>	(1,79)	(-4,8)	(30,9)	(11,1)	(61,10)	(74,6)	(89,5)	(117,14)	(83,5)	(69,4)	(131,5)	(-1,20)	(73,9)	(94,13)	(71,6)	(88,2)	
L1D -71>	(118,2)	(94,12)	(76,20)	(31,19)	(73,64)	(132,27)	(61,48)	(1,97)	(75,18)	(-1,40)	(72,12)	(29,34)	(154,10)	(11,31)	(131,3)	(133,15)	
L1D -70>	(94,9)	(-85,85)	(10,1)	(81,8)	(21,39)	(7,23)	(132,8)	(25,25)	(71,12)	(69,75)	(362,2)	(52,1)	(29,11)	(130,9)	(61,6)	(133,7)	
L1D -69>	(130,7)	(1,85)	(22,109)	(-85,17)	(-14,8)	(27,62)	(43,40)	(8,1)	(94,18)	(134,8)	(61,28)	(21,14)	(69,7)	(126,12)	(131,16)	(154,4)	
L1D -68>	(1,10)	(28,7)	(8,7)	(22,7)	(69,86)	(67,3)	(26,68)	(130,15)	(154,2)	(42,3)	(2,108)	(94,12)	(81,1)	(71,2)	(43,10)	(61,16)	
L1D -67>	(94,4)	(25,15)	(1,25)	(26,2)	(67,6)	(128,11)	(42,5)	(66,22)	(7,4)	(61,6)	(43,15)	(122,68)	(15,65)	(68,1)	(9,1)	(6,2)	
L1D -66>	(6,15)	(63,14)	(23,1)	(-45,74)	(94,12)	(1,9)	(62,9)	(43,60)	(128,8)	(65,9)	(67,7)	(24,44)	(42,1)	(64,16)	(21,58)	(4,4)	
L1D -65>	(4,1)	(64,103)	(1,44)	(31,44)	(63,9)	(62,6)	(66,58)	(43,108)	(13,111)	(127,15)	(2,7)	(6,13)	(23,86)	(107,56)	(-69,10)	(126,5)	
L1D -64>	(22,8)	(63,1)	(1,73)	(4,0)	(15,2)	(56,0)	(44,0)	(126,0)	(66,1)	(-90,1)	(45,4)	(65,1)	(61,1)	(-20,2)	(62,1)	(43,8)	
L1D -63>	(42,13)	(3,24)	(1,50)	(61,19)	(65,6)	(63,5)	(21,94)	(-87,24)	(52,10)	(7,11)	(64,17)	(43,102)	(59,1)	(45,7)	(56,10)	(-1,48)	
L1D -62>	(0,13)	(1,3)	(59,34)	(20,68)	(-2,31)	(61,19)	(42,9)	(2,9)	(62,24)	(-84,1)	(45,11)	(43,61)	(58,15)	(44,5)	(60,16)	(-91,13)	
L1D -61>	(1,70)	(-93,4)	(60,10)	(43,21)	(57,9)	(19,42)	(50,10)	(42,9)	(56,5)	(53,9)	(-1,5)	(8,2)	(-3,10)	(59,31)	(58,11)	(-92,1)	
L1D -60>	(60,32)	(58,47)	(-2,21)	(59,65)	(65,10)	(61,54)	(-1,41)	(18,11)	(57,28)	(43,12)	(99,11)	(8,6)	(63,33)	(62,66)	(56,1)	(0,10)	
L1D -59>	(17,116)	(60,24)	(61,94)	(58,51)	(-1,57)	(1,9)	(57,33)	(0,1)	(51,30)	(44,13)	(-4,43)	(42,22)	(59,33)	(64,31)	(38,12)	(43,72)	
L1D -58>	(16,86)	(60,6)	(61,6)	(57,9)	(-1,5)	(43,13)	(54,7)	(56,10)	(2,6)	(53,2)	(55,4)	(59,26)	(-2,3)	(15,10)	(42,3)	(44,23)	
L1D -57>	(-10,9)	(15,98)	(57,87)	(3,3)	(-1,16)	(58,26)	(56,30)	(61,66)	(43,71)	(52,1)	(54,29)	(59,21)	(42,43)	(14,11)	(1,6)	(60,21)	
L1D -56>	(14,43)	(57,3)	(55,33)	(67,1)	(43,68)	(51,6)	(44,10)	(45,58)	(1,14)	(42,13)	(6,7)	(47,2)	(56,23)	(61,22)	(59,15)	(60,10)	
L1D -55>	(52,1)	(13,66)	(42,14)	(11,8)	(-2,4)	(53,38)	(4,5)	(60,10)	(54,10)	(59,11)	(15,8)	(58,2)	(14,16)	(12,6)	(57,6)	(43,64)	
L1D -54>	(43,36)	(-27,76)	(9,1)	(56,14)	(59,20)	(4,29)	(1,127)	(54,4)	(55,8)	(60,29)	(53,19)	(12,76)	(11,44)	(10,41)	(-52,6)	(42,30)	
L1D -53>	(54,42)	(1,24)	(51,50)	(11,110)	(5,1)	(53,40)	(9,13)	(59,8)	(60,22)	(57,10)	(-40,7)	(10,50)	(42,17)	(43,55)	(52,12)	(12,9)	
L1D -52>	(7,10)	(5,1)	(-1,86)	(93,7)	(10,127)	(50,29)	(51,60)	(92,18)	(89,4)	(107,6)	(94,7)	(0,3)	(9,8)	(60,7)	(42,8)	(43,24)	
L1D -51>	(-1,31)	(45,1)	(52,30)	(9,42)	(39,65)	(50,39)	(1,6)	(92,4)	(51,68)	(43,74)	(49,32)	(4,10)	(56,23)	(59,9)	(6,7)	(42,21)	
L1D -50>	(51,123)	(59,16)	(53,27)	(1,12)	(8,46)	(4,26)	(10,1)	(94,15)	(60,19)	(49,18)	(-1,24)	(42,43)	(43,54)	(2,23)	(48,41)	(50,93)	
L1D -49>	(6,16)	(1,16)	(5,25)	(50,23)	(44,24)	(2,36)	(4,4)	(42,6)	(51,9)	(-1,6)	(-73,5)	(7,16)	(-97,1)	(43,48)	(49,93)	(9,12)	
L1D -48>	(51,38)	(56,1)	(42,22)	(6,50)	(2,71)	(5,13)	(3,69)	(47,9)	(52,13)	(50,22)	(8,81)	(4,27)	(-1,20)	(53,8)	(48,125)	(43,14)	
L1D -47>	(47,88)	(50,13)	(49,7)	(-1,17)	(5,5)	(60,1)	(2,23)	(4,5)	(44,14)	(0,4)	(-108,14)	(15,3)	(3,33)	(41,13)	(43,55)	(42,5)	
L1D -46>	(1,32)	(59,1)	(46,88)	(43,29)	(2,33)	(48,40)	(4,21)	(45,82)	(44,70)	(93,16)	(42,30)	(41,55)	(-4,25)	(-1,54)	(40,92)	(31,14)	
L1D -45>	(46,13)	(43,46)	(13,12)	(34,1)	(-1,33)	(44,24)	(3,33)	(47,10)	(41,75)	(93,20)	(45,107)	(35,10)	(50,15)	(-5,5)	(38,10)	(40,52)	
L1D -44>	(41,43)	(25,9)	(-4,13)	(2,16)	(43,15)	(29,22)	(36,16)	(39,11)	(-1,42)	(33,16)	(44,124)	(42,15)	(40,56)	(4,12)	(38,12)	(-5,1)	
L1D -43>	(-12,1)	(1,50)	(-7,18)	(40,104)	(2,25)	(44,15)	(-1,57)	(43,54)	(-5,6)	(42,114)	(6,47)	(41,97)	(28,16)	(39,40)	(-2,27)	(37,21)	
L1D -42>	(37,21)	(2,64)	(47,22)	(42,25)	(43,66)	(48,23)	(41,108)	(-1,74)	(33,17)	(-2,1)	(50,19)	(44,62)	(45,55)	(40,101)	(38,33)	(51,20)	
L1D -41>	(36,6)	(47,47)	(40,114)	(10,6)	(2,39)	(49,29)	(42,25)	(50,16)	(43,74)	(1,39)	(44,41)	(45,23)	(41,37)	(52,1)	(-2,10)	(38,12)	
L1D -40>	(46,5)	(42,1)	(-16,1)	(39,82)	(-1,3)	(44,10)	(43,26)	(2,1)	(-3,1)	(41,1)	(10,1)	(-2,1)	(45,4)	(29,2)	(40,2)	(1,5)	
L1D -39>	(38,125)	(-1,15)	(-7,1)	(-2,1)	(46,2)	(45,1)	(-83,1)	(39,2)	(0,1)	(48,2)	(30,1)	(43,2)	(41,3)	(37,1)	(36,2)	(-3,1)	
L1D -38>	(36,35)	(37,10)	(38,71)	(4,9)	(40,15)	(42,25)	(-4,12)	(41,27)	(-1,37)	(43,13)	(39,15)	(64,1)	(50,2)	(-3,5)	(-2,18)	(47,5)	
L1D -37>	(-3,7)	(37,125)	(45,1)	(38,19)	(40,48)	(36,26)	(-2,15)	(57,11)	(39,25)	(-1,36)	(41,27)	(196,8)	(42,28)	(44,12)	(43,3)	(1,11)	
L1D -36>	(36,103)	(-1,26)	(41,23)	(35,21)	(60,1)	(38,38)	(-3,8)	(39,15)	(37,13)	(-4,3)	(40,5)	(-6,12)	(94,5)	(42,13)	(52,9)	(44,6)	
L1D -35>	(40,29)	(41,26)	(60,1)	(-82,35)	(1,8)	(38,14)	(35,125)	(36,14)	(37,15)	(42,20)	(6,18)	(39,12)	(-80,35)	(-5,13)	(-81,16)	(34,12)	
L1D -34>	(38,5)	(60,1)	(33,5)	(-6,6)	(35,7)	(-2,3)	(-5,1)	(-1,12)	(36,9)	(41,14)	(34,75)	(53,7)	(37,8)	(42,13)	(-7,12)	(26,3)	
L1D -33>	(19,17)	(44,6)	(32,11)	(35,7)	(41,30)	(94,7)	(-9,13)	(33,92)	(36,9)	(180,3)	(48,1)	(-1,17)	(54,8)	(0,7)	(42,21)	(34,4)	
L1D -32>	(20,39)	(60,1)	(-8,11)	(31,56)	(41,31)	(38,3)	(21,104)	(-1,79)	(33,14)	(-10,22)	(-14,9)	(1,24)	(28,4)	(32,121)	(40,10)	(34,4)	
L1D -31>	(41,20)	(-9,31)	(33,25)	(-11,23)	(20,59)	(32,32)	(-14,23)	(-2,1)	(2,20)	(31,87)	(6,14)	(4,28)	(8,81)	(5,23)	(-10,14)	(-1,46)	
L1D -30>	(31,29)	(-1,106)	(30,61)	(-11,32)	(-10,26)	(6,20)	(41,33)	(33,1)	(19,8)	(24,10)	(14,54)	(5,10)	(38,7)	(3,60)	(-12,29)	(42,8)	
L1D -29>	(28,11)	(32,5)	(26,3)	(5,80)	(-11,10)	(30,6)	(29,40)	(-12,3)	(-41,1)	(-1,11)	(6,21)	(31,6)	(2,12)	(41,12)	(4,4)	(42,4)	
L1D -28>	(56,1)	(1,43)	(41,17)	(2,28)	(5,26)	(-13,14)	(29,21)	(10,27)	(31,12)	(-1,25)	(-12,17)	(3,36)	(34,3)	(-14,26)	(28,97)	(6,13)	
L1D -27>	(11,12)	(1,20)	(2,33)	(8,68)	(-13,11)	(12,1)	(26,10)	(31,10)	(-1,13)	(4,10)	(3,64)	(29,13)	(27,83)	(40,15)	(5,13)	(6,8)	
L1D -26>	(1,18)	(-1,17)	(19,1)	(24,73)	(67,9)	(28,12)	(26,55)	(30,41)	(2,23)	(-16,11)	(33,35)	(27,28)	(6,31)	(22,15)	(4,9)	(25,24)	
L1D -25>	(41,28)	(7,26)	(1,43)	(3,47)	(2,24)	(25,58)	(16,29)	(9,96)	(-17,1)	(4,30)	(-11,23)	(24,18)	(-1,26)	(12,19)	(27,27)	(6,12)	
L1D -24>	(41,17)	(0,5)	(1,107)	(-18,12)	(23,12)	(8,123)	(9,2)	(3,33)	(22,14)	(2,28)	(-42,11)	(24,95)	(-6,16)	(5,12)	(25,8)	(-1,49)	
L1D -23>	(1,35)	(2,25)	(3,20)	(18,22)	(25,36)	(22,38)	(19,31)	(17,21)	(-7,28)	(23,76)	(24,88)	(20,12)	(-1,19)	(0,21)	(4,1)	(6,28)	
L1D -22>	(21,45)	(1,37)	(2,27)	(3,63)	(43,14)	(-2,18)	(19,75)	(-1,27)	(5,1)	(23,56)	(22,103)	(25,94)	(6,98)	(16,73)	(20,76)	(-42,24)	
L1D -21>	(1,125)	(-1,45)	(-78,1)	(18,25)	(29,62)	(20,101)	(5,10)	(21,40)	(16,77)	(2,22)	(-11,16)	(15,101)	(6,25)	(-42,10)	(-2,11)	(23,6)	
L1D -20>	(20,93)	(16,5)	(6,18)	(18,5)	(3,2)	(1,20)	(5,42)	(-13,7)	(-42,3)	(26,5)	(239,1)	(15,13)	(-1,13)	(-15,7)	(0,17)	(-2,23)	
L1D -19>	(1,14)	(2,36)	(5,8)	(29,26)	(13,10)	(15,15)	(16,12)	(6,23)	(21,10)	(-42,6)	(28,1)	(7,11)	(-5,4)	(4,96)	(14,16)	(3,12)	
L1D -18>	(19,56)	(-42,19)	(5,14)	(1,66)	(11,17)	(14,62)	(-1,19)	(2,1)	(31,63)	(6,39)	(4,112)	(-3,16)	(3,77)	(15,19)	(13,20)	(22,9)	
L1D -17>	(2,19)	(43,2)	(4,74)	(1,104)	(16,7)	(13,16)	(22,57)	(7,4)	(11,4)	(6,14)	(15,7)	(5,4)	(19,3)	(3,14)	(14,8)	(8,97)	
L1D -16>	(13,19)	(6,10)	(-60,3)	(5,6)	(1,103)	(15,9)	(3,44)	(14,14)	(11,27)	(16,12)	(12,7)	(-42,6)	(43,2)	(4,65)	(2,18)	(26,15)	
L1D -15>	(5,38)	(2,1)	(1,25)	(10,10)	(6,10)	(9,22)	(24,13)	(-42,16)	(26,5)	(4,109)	(20,4)	(11,46)	(28,19)	(13,25)	(3,14)	(12,31)	
L1D -14>	(1,17)	(-42,9)	(10,5)	(23,12)	(11,14)	(6,19)	(0,1)	(43,8)	(8,6)	(3,13)	(20,19)	(4,78)	(12,10)	(-40,7)	(5,38)	(2,12)	
L1D -13>	(28,87)	(12,53)	(1,58)	(-39,1)	(10,40)	(8,80)	(-42,47)	(-5,22)	(22,23)	(2,44)	(6,103)	(3,77)	(11,30)	(4,120)	(5,77)	(33,72)	
L1D -12>	(-48,1)	(18,13)	(2,56)	(9,31)	(7,15)	(10,40)	(43,11)	(-42,43)	(21,20)	(3,20)	(11,34)	(5,109)	(8,32)	(1,108)	(6,77)	(4,110)	
L1D -11>	(23,1)	(10,5)	(1,16)	(-42,15)	(8,2)	(20,8)	(18,12)	(5,10)	(3,14)	(-18,5)	(9,4)	(2,6)	(6,8)	(4,94)	(7,4)	(22,2)	
L1D -10>	(6,26)	(8,12)	(4,73)	(1,68)	(-42,18)	(28,14)	(0,13)	(117,1)	(18,15)	(19,5)	(3,42)	(5,35)	(43,6)	(9,17)	(7,9)	(2,102)	
L1D -9>	(18,1)	(12,65)	(1,33)	(6,46)	(7,13)	(13,10)	(3,10)	(8,14)	(-42,15)	(10,23)	(15,37)	(4,49)	(2,33)	(-14,23)	(43,1)	(5,22)	
L1D -8>	(5,5)	(1,28)	(6,15)	(14,125)	(2,88)	(17,1)	(4,97)	(-42,17)	(13,14)	(8,70)	(43,6)	(7,60)	(3,8)	(32,6)	(12,8)	(-11,10)	
L1D -7>	(12,1)	(1,119)	(0,34)	(5,60)	(8,44)	(3,22)	(-42,17)	(6,78)	(9,61)	(-1,14)	(14,52)	(2,18)	(4,68)	(10,32)	(-7,33)	(7,89)	
L1D -6>	(-2,28)	(-3,99)	(-10,12)	(5,42)	(4,29)	(10,23)	(8,17)	(-19,1)	(-7,17)	(11,15)	(1,42)	(-15,12)	(-9,27)	(18,7)	(-1,13)	(-8,5)	
L1D -5>	(-15,19)	(10,1)	(0,16)	(4,48)	(1,21)	(6,10)	(2,10)	(-42,10)	(8,28)	(-5,15)	(5,14)	(-11,20)	(7,10)	(-10,34)	(-1,14)	(-3,83)	
L1D -4>	(-13,12)	(-6,37)	(3,54)	(-11,103)	(-17,25)	(-12,8)	(1,69)	(4,47)	(-5,49)	(-3,54)	(-2,20)	(-19,1)	(-15,114)	(-7,21)	(-4,32)	(-1,25)	
L1D -3>	(7,68)	(-5,16)	(0,34)	(-9,7)	(1,82)	(-18,1)	(2,30)	(3,33)	(-4,32)	(-15,28)	(-11,34)	(4,36)	(-6,21)	(-7,39)	(-2,16)	(-1,18)	
L1D -2>	(-7,36)	(0,76)	(-5,67)	(-2,25)	(-11,38)	(2,26)	(-6,27)	(-1,38)	(-10,26)	(1,100)	(-9,1)	(-3,56)	(-8,15)	(-13,30)	(-15,76)	(-4,22)	
L1D -1>	(-6,2)	(-1,102)	(-23,1)	(-9,3)	(125,1)	(-16,2)	(25,1)	(-19,2)	(33,1)	(-3,9)	(1,5)	(-11,3)	(-4,3)	(-2,1)	(-41,1)	(0,7)	
L1D 0>	(0,124)	(11,1)	(5,1)	(7,3)	(3,5)	(-98,1)	(20,2)	(1,14)	(-1,2)	(-10,1)	(306,1)	(33,3)	(6,1)	(4,4)	(2,2)	(32,1)	
L1D 1>	(1,81)	(13,1)	(10,2)	(0,4)	(98,1)	(4,5)	(84,1)	(-21,1)	(3,9)	(2,5)	(-2,3)	(-1,8)	(-10,1)	(-16,1)	(7,1)	(8,4)	
L1D 2>	(-6,68)	(11,1)	(1,40)	(-176,10)	(2,22)	(3,25)	(-7,12)	(-42,9)	(8,26)	(21,9)	(23,12)	(6,40)	(4,44)	(5,8)	(10,5)	(-2,26)	
L1D 3>	(-13,12)	(1,37)	(-11,21)	(3,49)	(-1,91)	(-3,39)	(2,38)	(5,31)	(6,17)	(-7,18)	(17,1)	(4,14)	(-2,14)	(-10,24)	(21,13)	(8,14)	
L1D 4>	(3,61)	(-4,54)	(1,53)	(-1,34)	(-9,25)	(-3,28)	(21,28)	(11,17)	(4,21)	(6,80)	(2,69)	(25,1)	(29,12)	(8,32)	(-27,15)	(-16,14)	
L1D 5>	(-5,41)	(-1,15)	(3,49)	(-18,12)	(-4,25)	(6,114)	(1,65)	(2,17)	(22,1)	(9,14)	(13,21)	(24,32)	(11,28)	(-42,12)	(-3,17)	(-2,41)	
L1D 6>	(14,1)	(-18,7)	(-1,25)	(-17,11)	(-19,6)	(-116,69)	(-5,11)	(0,10)	(12,71)	(6,18)	(1,65)	(2,96)	(8,9)	(-6,38)	(7,11)	(-14,19)	
L1D 7>	(-7,36)	(-5,8)	(2,94)	(-19,1)	(-3,13)	(0,12)	(-10,14)	(-4,33)	(-2,10)	(-42,16)	(1,15)	(-6,46)	(-13,8)	(41,4)	(-1,21)	(9,7)	
L1D 8>	(3,31)	(-4,56)	(1,40)	(-6,20)	(-7,27)	(7,11)	(-1,73)	(-13,26)	(8,83)	(5,34)	(-17,55)	(-2,37)	(-3,31)	(-42,19)	(29,1)	(-8,97)	
L1D 9>	(-16,1)	(-8,16)	(-7,27)	(-1,19)	(41,12)	(-2,109)	(3,24)	(-3,65)	(-6,51)	(1,24)	(-4,51)	(-17,5)	(7,6)	(-42,12)	(-5,12)	(-26,12)	
L1D 10>	(-3,82)	(7,3)	(-8,45)	(3,59)	(-5,4)	(-17,6)	(0,8)	(-2,18)	(-4,32)	(-1,31)	(-9,16)	(-42,12)	(32,18)	(1,1)	(-10,10)	(-6,11)	
L1D 11>	(-5,4)	(-17,4)	(-1,40)	(-20,5)	(-3,29)	(-42,8)	(6,19)	(-4,124)	(-8,55)	(-2,24)	(1,5)	(48,1)	(-6,4)	(-10,5)	(-7,15)	(-9,11)	
L1D 12>	(2,2)	(13,116)	(-5,73)	(-7,12)	(-54,5)	(-6,18)	(31,10)	(-1,19)	(-42,13)	(-3,88)	(-11,19)	(-2,36)	(-4,19)	(-10,26)	(-9,8)	(-8,39)	
L1D 13>	(-6,82)	(-1,37)	(7,18)	(4,11)	(-2,73)	(-42,19)	(-60,1)	(6,53)	(-4,31)	(-11,32)	(-9,33)	(-10,50)	(-8,111)	(-12,54)	(-5,9)	(-3,57)	
L1D 14>	(-7,17)	(6,71)	(-42,13)	(-10,11)	(-4,12)	(-2,26)	(-25,11)	(-1,10)	(-6,11)	(5,18)	(-3,13)	(-9,6)	(-12,14)	(-11,13)	(-13,9)	(-5,2)	
L1D 15>	(-2,27)	(-3,40)	(-25,14)	(-6,24)	(-13,35)	(-9,9)	(10,1)	(32,17)	(-12,34)	(-1,12)	(-14,29)	(-10,60)	(-11,72)	(-4,65)	(-42,40)	(-5,38)	
L1D 16>	(1,8)	(41,12)	(-2,11)	(-13,17)	(-58,5)	(-14,18)	(13,9)	(-12,10)	(-18,7)	(39,1)	(-4,44)	(-42,26)	(-6,16)	(-1,125)	(40,5)	(-15,3)	
L1D 17>	(-13,70)	(-12,7)	(6,8)	(-3,9)	(-1,11)	(-2,120)	(0,18)	(41,19)	(-14,47)	(-16,11)	(28,1)	(-42,59)	(-15,50)	(-6,8)	(-60,8)	(-4,27)	
L1D 18>	(-17,58)	(-42,89)	(-1,16)	(21,19)	(-25,10)	(-18,11)	(-14,37)	(-16,66)	(-2,13)	(-13,39)	(-3,99)	(-15,108)	(41,1)	(-60,6)	(25,6)	(-6,19)	
L1D 19>	(12,40)	(-18,50)	(-32,42)	(-42,74)	(1,107)	(-17,26)	(6,14)	(220,1)	(-1,82)	(-2,25)	(-15,87)	(8,26)	(-16,14)	(-5,30)	(-4,84)	(41,23)	
L1D 20>	(-2,23)	(-16,48)	(-15,28)	(-20,123)	(-17,19)	(-19,38)	(13,30)	(0,64)	(-1,29)	(-5,16)	(5,1)	(1,35)	(-42,23)	(-3,14)	(-6,30)	(-18,25)	
L1D 21>	(-42,29)	(-19,91)	(-3,26)	(-4,24)	(-13,117)	(-2,68)	(-15,17)	(-21,32)	(-1,29)	(-60,1)	(9,19)	(-22,20)	(-17,66)	(-20,15)	(-18,75)	(-16,17)	
L1D 22>	(-1,38)	(-19,34)	(-5,12)	(-3,42)	(-17,51)	(-23,105)	(-42,38)	(-20,25)	(-21,23)	(-60,1)	(-4,77)	(-2,9)	(-16,14)	(2,32)	(146,20)	(-18,93)	
L1D 23>	(-39,1)	(0,11)	(-24,51)	(-1,18)	(-18,85)	(-17,51)	(-23,16)	(-3,31)	(-21,40)	(-20,36)	(-19,93)	(-42,42)	(-2,48)	(-22,13)	(-4,83)	(-6,8)	
L1D 24>	(-42,24)	(6,20)	(-21,83)	(-5,25)	(-18,7)	(-1,106)	(-25,26)	(-23,7)	(-19,6)	(0,5)	(-2,1)	(-20,6)	(-17,8)	(3,29)	(-3,15)	(-22,4)	
L1D 25>	(-20,14)	(-21,42)	(-4,29)	(-27,25)	(-26,33)	(0,7)	(-40,48)	(16,17)	(15,20)	(-42,63)	(-19,54)	(-2,106)	(2,29)	(-23,11)	(-17,76)	(-1,1)	
L1D 26>	(-2,2)	(-42,73)	(-24,1)	(-26,10)	(1,6)	(2,8)	(-30,9)	(54,13)	(-22,20)	(-3,51)	(0,6)	(-23,12)	(-27,25)	(-20,5)	(-41,14)	(-21,13)	
L1D 27>	(14,9)	(1,12)	(-42,95)	(-23,25)	(-25,14)	(-28,41)	(-129,1)	(-31,11)	(-24,18)	(12,10)	(-30,6)	(-27,15)	(-26,11)	(-4,57)	(-41,27)	(-40,23)	
L1D 28>	(11,1)	(-1,31)	(-5,37)	(12,9)	(9,3)	(-2,97)	(-27,18)	(-40,18)	(2,3)	(-42,64)	(-29,49)	(-11,81)	(-26,19)	(-14,15)	(4,4)	(-41,18)	
L1D 29>	(-20,25)	(69,1)	(-21,72)	(-13,38)	(-26,3)	(11,1)	(-30,16)	(-28,9)	(-42,48)	(-19,5)	(1,3)	(-6,3)	(-22,2)	(-40,17)	(-3,2)	(-25,4)	
L1D 30>	(-27,6)	(-31,24)	(-24,26)	(15,1)	(-33,3)	(9,2)	(-42,84)	(-29,5)	(-41,10)	(-39,22)	(-1,8)	(2,5)	(11,2)	(-40,13)	(0,9)	(1,2)	
L1D 31>	(-6,28)	(2,16)	(-7,17)	(-3,111)	(-32,25)	(1,25)	(12,1)	(7,4)	(9,10)	(-12,8)	(-41,26)	(10,26)	(-42,110)	(-2,6)	(-40,46)	(0,31)	
L1D 32>	(10,10)	(-33,36)	(-27,77)	(-25,11)	(-19,1)	(0,7)	(-43,3)	(-12,5)	(-42,89)	(-26,8)	(-29,22)	(-1,46)	(-36,6)	(-31,39)	(8,2)	(1,6)	
L1D 33>	(-39,4)	(5,4)	(-19,5)	(-40,38)	(-17,109)	(-1,64)	(-34,48)	(4,13)	(8,11)	(-7,8)	(2,9)	(-42,114)	(-41,17)	(0,7)	(-36,1)	(9,11)	
L1D 34>	(-36,1)	(1,32)	(0,10)	(-42,83)	(-35,52)	(-40,15)	(13,2)	(5,7)	(-37,4)	(-39,5)	(-8,5)	(4,3)	(-1,2)	(2,4)	(-41,10)	(7,7)	
L1D 35>	(-117,1)	(9,1)	(-37,6)	(5,5)	(7,5)	(-42,73)	(10,2)	(1,7)	(6,1)	(-60,4)	(2,12)	(-36,24)	(4,10)	(-41,3)	(-40,11)	(0,5)	
L1D 36>	(2,12)	(0,5)	(-36,6)	(-38,8)	(-42,85)	(5,7)	(-40,14)	(10,5)	(128,3)	(-43,1)	(-37,39)	(-41,16)	(-2,14)	(-39,5)	(-15,2)	(-11,4)	
L1D 37>	(9,1)	(159,7)	(6,9)	(-42,116)	(1,17)	(4,12)	(-38,106)	(-12,21)	(-43,11)	(0,17)	(8,11)	(5,12)	(-41,38)	(-44,12)	(-40,57)	(-39,21)	
L1D 38>	(-49,1)	(1,1)	(-1,1)	(5,1)	(-40,1)	(-39,89)	(-44,1)	(-43,2)	(0,4)	(-42,11)	(-8,1)	(-37,1)	(-15,1)	(-38,1)	(76,1)	(-5,1)	
L1D 39>	(-46,1)	(11,4)	(-99,1)	(-41,2)	(-14,3)	(-45,2)	(3,1)	(-44,2)	(-42,16)	(1,1)	(-131,1)	(-40,113)	(-21,1)	(13,1)	(-43,1)	(14,1)	
L1D 40>	(-42,76)	(-15,37)	(-41,41)	(1,9)	(-144,1)	(-11,14)	(-46,24)	(-40,6)	(-14,7)	(-43,36)	(-1,7)	(-45,19)	(-8,6)	(-44,26)	(-58,7)	(-12,2)	
L1D 41>	(-45,8)	(-11,14)	(-12,7)	(-42,83)	(-9,3)	(-1,53)	(-15,10)	(-46,6)	(2,1)	(-4,8)	(-44,21)	(-3,16)	(-8,7)	(-2,8)	(-43,20)	(-6,9)	
L1D 42>	(-45,11)	(17,1)	(-16,6)	(-42,38)	(31,18)	(-9,10)	(-43,108)	(10,9)	(-44,12)	(-1,38)	(-2,59)	(-10,11)	(-40,16)	(-15,16)	(30,23)	(42,9)	
L1D 43>	(-40,44)	(3,13)	(-41,8)	(21,1)	(13,17)	(-42,122)	(6,11)	(-44,14)	(2,12)	(1,7)	(5,17)	(9,4)	(4,9)	(8,19)	(0,10)	(-34,12)	
L1D 44>	(-41,10)	(-15,1)	(2,9)	(-1,7)	(-45,14)	(1,10)	(-43,3)	(-46,5)	(-42,79)	(0,7)	(-4,6)	(-40,22)	(-60,3)	(-44,12)	(-118,2)	(4,3)	
L1D 45>	(-60,12)	(-44,6)	(1,14)	(-42,98)	(9,1)	(0,6)	(-4,3)	(11,3)	(-40,9)	(-41,10)	(-9,6)	(-46,17)	(2,6)	(-48,2)	(-1,5)	(-5,4)	
L1D 46>	(-60,7)	(-43,8)	(-47,20)	(-42,103)	(-44,2)	(-2,12)	(32,2)	(-41,4)	(-45,3)	(6,4)	(-1,15)	(2,11)	(-146,1)	(-7,1)	(-3,2)	(0,4)	
L1D 47>	(-4,23)	(-60,8)	(1,41)	(-134,2)	(-46,3)	(-2,9)	(-126,6)	(7,1)	(-44,5)	(-42,113)	(-1,7)	(-43,6)	(-3,5)	(-48,27)	(0,10)	(-45,1)	
L1D 48>	(-46,6)	(0,3)	(-116,1)	(-44,16)	(-1,12)	(-42,76)	(-5,5)	(-2,12)	(-43,4)	(-49,17)	(-37,1)	(1,1)	(-60,2)	(-134,2)	(8,3)	(-45,11)	
L1D 49>	(-60,17)	(10,2)	(-42,123)	(-43,18)	(-134,2)	(4,1)	(1,7)	(-50,29)	(0,9)	(-3,12)	(7,5)	(-2,11)	(-47,5)	(-1,10)	(-48,1)	(-5,4)	
L1D 50>	(-42,76)	(21,3)	(-43,5)	(9,1)	(-48,7)	(0,2)	(-51,18)	(-40,4)	(-60,6)	(-7,2)	(-1,1)	(-45,1)	(-3,7)	(6,3)	(-2,4)	(1,7)	
L1D 51>	(-55,6)	(-60,11)	(-42,67)	(-47,0)	(40,2)	(-43,3)	(-12,8)	(-52,40)	(-8,4)	(42,10)	(43,1)	(4,4)	(-48,11)	(-1,1)	(-2,3)	(-126,3)	
L1D 52>	(-60,17)	(-44,2)	(-42,117)	(-1,14)	(-41,2)	(-3,6)	(-9,8)	(-46,6)	(4,1)	(-43,14)	(-50,1)	(-2,7)	(-53,12)	(-7,6)	(7,3)	(-52,7)	
L1D 53>	(2,3)	(-8,1)	(-60,10)	(-45,1)	(-42,65)	(-10,5)	(-2,2)	(-61,1)	(-43,4)	(-1,2)	(-52,3)	(6,7)	(-51,1)	(-13,1)	(4,1)	(-59,1)	
L1D 54>	(-9,5)	(-60,16)	(-42,121)	(-11,6)	(-55,1)	(-59,2)	(107,6)	(-2,5)	(-53,7)	(108,26)	(5,4)	(-1,28)	(-148,1)	(-63,4)	(1,6)	(-43,3)	
L1D 55>	(-1,7)	(3,2)	(-43,6)	(-107,3)	(-42,122)	(-12,12)	(-54,16)	(-2,8)	(-60,6)	(1,1)	(-94,1)	(-3,8)	(-10,4)	(-65,8)	(-44,3)	(-11,3)	
L1D 56>	(-52,3)	(-57,1)	(2,11)	(-67,2)	(6,3)	(-60,8)	(-42,74)	(-13,15)	(-2,3)	(-61,1)	(-1,21)	(-54,7)	(-3,6)	(-43,2)	(-19,1)	(-11,7)	
L1D 57>	(-60,8)	(1,2)	(-42,105)	(-15,2)	(-14,4)	(-4,2)	(-52,17)	(-2,18)	(-29,1)	(-1,13)	(-57,15)	(-12,10)	(-20,4)	(-43,1)	(-58,8)	(-61,5)	
L1D 58>	(-60,32)	(-50,4)	(-42,104)	(-15,15)	(-13,13)	(-3,11)	(-14,11)	(-59,18)	(170,3)	(-16,1)	(-56,3)	(-2,17)	(-61,8)	(-1,21)	(-152,6)	(-62,10)	
L1D 59>	(-60,107)	(-2,20)	(-3,19)	(-42,123)	(-63,26)	(-6,7)	(-16,21)	(-62,15)	(-15,6)	(-14,18)	(-13,11)	(-1,43)	(-5,1)	(-61,27)	(4,8)	(-11,18)	
L1D 60>	(39,77)	(-60,84)	(-42,112)	(38,42)	(18,43)	(-11,1)	(-13,5)	(-3,8)	(-154,7)	(-61,25)	(-16,5)	(-4,17)	(-59,5)	(-17,7)	(-1,26)	(-2,21)	
L1D 61>	(-141,1)	(-60,49)	(39,11)	(-42,112)	(-56,14)	(-18,20)	(8,13)	(38,6)	(18,10)	(-53,7)	(-1,10)	(17,21)	(-59,14)	(1,38)	(-54,6)	(-58,20)	
L1D 62>	(-55,8)	(196,92)	(-60,91)	(-154,1)	(-61,9)	(-42,58)	(-19,9)	(-1,22)	(-41,8)	(-59,16)	(11,2)	(4,10)	(0,4)	(-17,3)	(37,8)	(1,8)	
L1D 63>	(-60,94)	(-43,14)	(-55,1)	(-20,10)	(-42,73)	(-61,6)	(-62,5)	(4,9)	(8,6)	(-2,8)	(-17,4)	(6,1)	(-6,9)	(-59,4)	(-1,2)	(3,10)	
L1D 64>	(-63,4)	(-60,60)	(-6,1)	(-42,67)	(-21,15)	(-1,13)	(3,7)	(-43,0)	(-59,10)	(-154,2)	(-41,23)	(1,10)	(2,21)	(-62,7)	(-61,5)	(-4,5)	
L1D 65>	(-60,12)	(-59,2)	(-154,1)	(-42,59)	(-22,6)	(-21,0)	(-4,1)	(-64,84)	(-16,0)	(-133,1)	(-13,0)	(-45,0)	(-43,0)	(1,1)	(-1,6)	(-2,4)	
L1D 66>	(-60,46)	(7,1)	(-1,11)	(-65,13)	(-2,2)	(-42,77)	(-23,27)	(-41,7)	(-64,6)	(-61,3)	(-150,2)	(-62,2)	(-63,5)	(28,1)	(-12,1)	(-39,6)	
L1D 67>	(-24,4)	(-60,29)	(-63,4)	(-42,77)	(-64,3)	(-94,2)	(-67,3)	(-61,5)	(-21,1)	(-3,3)	(-6,2)	(-150,1)	(-4,6)	(-23,3)	(1,5)	(-59,1)	
[...]
L1D 477>	(4,5)	(3,1)	(1,0)	(1,0)	(1,0)	(1,0)	(1,0)	(1,0)	(1,0)	(1,0)	(1,0)	(1,0)	(1,0)	(1,0)	(1,0)	(1,0)	
L1D 478>	(1,1)	(1,0)	(1,0)	(1,0)	(1,0)	(1,0)	(1,0)	(1,0)	(1,0)	(1,0)	(1,0)	(1,0)	(1,0)	(1,0)	(1,0)	(1,0)	
L1D 479>	(4,4)	(0,1)	(1,0)	(1,0)	(1,0)	(1,0)	(1,0)	(1,0)	(1,0)	(1,0)	(1,0)	(1,0)	(1,0)	(1,0)	(1,0)	(1,0)	
L1D 480>	(4,1)	(1,1)	(0,1)	(1,0)	(1,0)	(1,0)	(1,0)	(1,0)	(1,0)	(1,0)	(1,0)	(1,0)	(1,0)	(1,0)	(1,0)	(1,0)	
L1D 481>	(4,7)	(2,1)	(6,5)	(3,1)	(1,0)	(1,0)	(1,0)	(1,0)	(1,0)	(1,0)	(1,0)	(1,0)	(1,0)	(1,0)	(1,0)	(1,0)	
L1D 482>	(1,1)	(4,2)	(-484,1)	(-282,1)	(1,0)	(1,0)	(1,0)	(1,0)	(1,0)	(1,0)	(1,0)	(1,0)	(1,0)	(1,0)	(1,0)	(1,0)	
L1D 483>	(0,3)	(4,5)	(1,1)	(1,0)	(1,0)	(1,0)	(1,0)	(1,0)	(1,0)	(1,0)	(1,0)	(1,0)	(1,0)	(1,0)	(1,0)	(1,0)	
L1D 484>	(1,0)	(1,0)	(1,0)	(1,0)	(1,0)	(1,0)	(1,0)	(1,0)	(1,0)	(1,0)	(1,0)	(1,0)	(1,0)	(1,0)	(1,0)	(1,0)	
L1D 485>	(4,5)	(-92,1)	(1,0)	(1,0)	(1,0)	(1,0)	(1,0)	(1,0)	(1,0)	(1,0)	(1,0)	(1,0)	(1,0)	(1,0)	(1,0)	(1,0)	
L1D 486>	(4,2)	(0,1)	(1,1)	(1,0)	(1,0)	(1,0)	(1,0)	(1,0)	(1,0)	(1,0)	(1,0)	(1,0)	(1,0)	(1,0)	(1,0)	(1,0)	
L1D 487>	(1,0)	(1,0)	(1,0)	(1,0)	(1,0)	(1,0)	(1,0)	(1,0)	(1,0)	(1,0)	(1,0)	(1,0)	(1,0)	(1,0)	(1,0)	(1,0)	
L1D 488>	(1,0)	(1,0)	(1,0)	(1,0)	(1,0)	(1,0)	(1,0)	(1,0)	(1,0)	(1,0)	(1,0)	(1,0)	(1,0)	(1,0)	(1,0)	(1,0)	
L1D 489>	(4,1)	(0,1)	(1,0)	(1,0)	(1,0)	(1,0)	(1,0)	(1,0)	(1,0)	(1,0)	(1,0)	(1,0)	(1,0)	(1,0)	(1,0)	(1,0)	
L1D 490>	(-491,1)	(1,2)	(-204,1)	(0,1)	(1,0)	(1,0)	(1,0)	(1,0)	(1,0)	(1,0)	(1,0)	(1,0)	(1,0)	(1,0)	(1,0)	(1,0)	
L1D 491>	(-491,1)	(1,1)	(1,0)	(1,0)	(1,0)	(1,0)	(1,0)	(1,0)	(1,0)	(1,0)	(1,0)	(1,0)	(1,0)	(1,0)	(1,0)	(1,0)	
L1D 492>	(1,1)	(-10,1)	(2,1)	(0,1)	(-48,1)	(-492,1)	(1,0)	(1,0)	(1,0)	(1,0)	(1,0)	(1,0)	(1,0)	(1,0)	(1,0)	(1,0)	
L1D 493>	(4,1)	(1,0)	(1,0)	(1,0)	(1,0)	(1,0)	(1,0)	(1,0)	(1,0)	(1,0)	(1,0)	(1,0)	(1,0)	(1,0)	(1,0)	(1,0)	
L1D 494>	(1,2)	(-453,2)	(0,1)	(-10,1)	(1,0)	(1,0)	(1,0)	(1,0)	(1,0)	(1,0)	(1,0)	(1,0)	(1,0)	(1,0)	(1,0)	(1,0)	
L1D 495>	(4,1)	(1,0)	(1,0)	(1,0)	(1,0)	(1,0)	(1,0)	(1,0)	(1,0)	(1,0)	(1,0)	(1,0)	(1,0)	(1,0)	(1,0)	(1,0)	
L1D 496>	(1,0)	(1,0)	(1,0)	(1,0)	(1,0)	(1,0)	(1,0)	(1,0)	(1,0)	(1,0)	(1,0)	(1,0)	(1,0)	(1,0)	(1,0)	(1,0)	
L1D 497>	(0,1)	(1,0)	(1,0)	(1,0)	(1,0)	(1,0)	(1,0)	(1,0)	(1,0)	(1,0)	(1,0)	(1,0)	(1,0)	(1,0)	(1,0)	(1,0)	
L1D 498>	(4,1)	(1,0)	(1,0)	(1,0)	(1,0)	(1,0)	(1,0)	(1,0)	(1,0)	(1,0)	(1,0)	(1,0)	(1,0)	(1,0)	(1,0)	(1,0)	
L1D 499>	(1,0)	(1,0)	(1,0)	(1,0)	(1,0)	(1,0)	(1,0)	(1,0)	(1,0)	(1,0)	(1,0)	(1,0)	(1,0)	(1,0)	(1,0)	(1,0)	
L1D 500>	(-488,1)	(1,0)	(1,0)	(1,0)	(1,0)	(1,0)	(1,0)	(1,0)	(1,0)	(1,0)	(1,0)	(1,0)	(1,0)	(1,0)	(1,0)	(1,0)	
L1D 501>	(4,1)	(1,0)	(1,0)	(1,0)	(1,0)	(1,0)	(1,0)	(1,0)	(1,0)	(1,0)	(1,0)	(1,0)	(1,0)	(1,0)	(1,0)	(1,0)	
L1D 502>	(1,1)	(1,0)	(1,0)	(1,0)	(1,0)	(1,0)	(1,0)	(1,0)	(1,0)	(1,0)	(1,0)	(1,0)	(1,0)	(1,0)	(1,0)	(1,0)	
L1D 503>	(4,1)	(1,0)	(1,0)	(1,0)	(1,0)	(1,0)	(1,0)	(1,0)	(1,0)	(1,0)	(1,0)	(1,0)	(1,0)	(1,0)	(1,0)	(1,0)	
L1D 504>	(1,0)	(1,0)	(1,0)	(1,0)	(1,0)	(1,0)	(1,0)	(1,0)	(1,0)	(1,0)	(1,0)	(1,0)	(1,0)	(1,0)	(1,0)	(1,0)	
L1D 505>	(1,0)	(1,0)	(1,0)	(1,0)	(1,0)	(1,0)	(1,0)	(1,0)	(1,0)	(1,0)	(1,0)	(1,0)	(1,0)	(1,0)	(1,0)	(1,0)	
L1D 506>	(0,1)	(1,0)	(1,0)	(1,0)	(1,0)	(1,0)	(1,0)	(1,0)	(1,0)	(1,0)	(1,0)	(1,0)	(1,0)	(1,0)	(1,0)	(1,0)	
L1D 507>	(1,0)	(1,0)	(1,0)	(1,0)	(1,0)	(1,0)	(1,0)	(1,0)	(1,0)	(1,0)	(1,0)	(1,0)	(1,0)	(1,0)	(1,0)	(1,0)	
L1D 508>	(1,0)	(1,0)	(1,0)	(1,0)	(1,0)	(1,0)	(1,0)	(1,0)	(1,0)	(1,0)	(1,0)	(1,0)	(1,0)	(1,0)	(1,0)	(1,0)	
L1D 509>	(1,0)	(1,0)	(1,0)	(1,0)	(1,0)	(1,0)	(1,0)	(1,0)	(1,0)	(1,0)	(1,0)	(1,0)	(1,0)	(1,0)	(1,0)	(1,0)	
L1D 510>	(1,0)	(1,0)	(1,0)	(1,0)	(1,0)	(1,0)	(1,0)	(1,0)	(1,0)	(1,0)	(1,0)	(1,0)	(1,0)	(1,0)	(1,0)	(1,0)	
L1D 511>	(1,0)	(1,0)	(1,0)	(1,0)	(1,0)	(1,0)	(1,0)	(1,0)	(1,0)	(1,0)	(1,0)	(1,0)	(1,0)	(1,0)	(1,0)	(1,0)	

L2C -64>	(1,252)	(2,90)	(-3,64)	(-1,51)	(-2,111)	(0,9)	(-5,7)	(-16,2)	(5,25)	(3,29)	(7,7)	(-15,11)	(4,21)	(6,7)	(40,4)	(-4,17)	
L2C -63>	(0,2)	(1,15)	(2,8)	(3,2)	(4,1)	(1,0)	(1,0)	(1,0)	(1,0)	(1,0)	(1,0)	(1,0)	(1,0)	(1,0)	(1,0)	(1,0)	
L2C -62>	(58,1)	(1,12)	(18,2)	(2,4)	(-1,4)	(37,1)	(4,1)	(13,1)	(1,0)	(1,0)	(1,0)	(1,0)	(1,0)	(1,0)	(1,0)	(1,0)	
L2C -61>	(1,16)	(-1,3)	(2,6)	(18,1)	(9,1)	(10,1)	(5,1)	(1,0)	(1,0)	(1,0)	(1,0)	(1,0)	(1,0)	(1,0)	(1,0)	(1,0)	
L2C -60>	(1,11)	(-2,1)	(46,1)	(0,1)	(2,2)	(-1,1)	(1,0)	(1,0)	(1,0)	(1,0)	(1,0)	(1,0)	(1,0)	(1,0)	(1,0)	(1,0)	
L2C -59>	(1,10)	(13,1)	(-1,3)	(9,1)	(2,1)	(43,1)	(15,1)	(19,1)	(1,0)	(1,0)	(1,0)	(1,0)	(1,0)	(1,0)	(1,0)	(1,0)	
L2C -58>	(1,12)	(-1,4)	(27,1)	(34,2)	(25,1)	(17,1)	(2,1)	(13,2)	(9,1)	(44,2)	(21,1)	(18,1)	(8,2)	(56,1)	(4,1)	(52,1)	
L2C -57>	(1,49)	(44,1)	(0,2)	(8,2)	(45,1)	(24,1)	(3,2)	(4,1)	(2,1)	(58,1)	(57,3)	(10,1)	(-1,8)	(26,1)	(11,1)	(47,3)	
L2C -56>	(1,18)	(-1,16)	(9,8)	(14,2)	(24,1)	(-2,2)	(0,3)	(49,1)	(-3,1)	(8,3)	(50,1)	(51,1)	(16,1)	(2,3)	(15,1)	(12,1)	
L2C -55>	(5,2)	(-1,6)	(15,1)	(1,15)	(33,1)	(4,3)	(49,3)	(37,1)	(24,1)	(3,2)	(-2,2)	(55,2)	(39,1)	(54,1)	(0,3)	(9,4)	
L2C -54>	(1,14)	(5,5)	(54,1)	(49,3)	(50,1)	(6,9)	(-1,5)	(7,2)	(51,4)	(10,1)	(-7,1)	(3,4)	(-2,3)	(24,1)	(46,3)	(4,5)	
L2C -53>	(1,11)	(20,1)	(54,5)	(6,2)	(53,1)	(27,2)	(48,4)	(2,4)	(-4,1)	(52,6)	(7,1)	(49,3)	(13,1)	(26,1)	(-2,1)	(32,2)	
L2C -52>	(48,3)	(11,1)	(-1,3)	(12,1)	(1,29)	(4,4)	(26,1)	(16,1)	(50,2)	(53,2)	(5,3)	(51,3)	(54,1)	(2,4)	(6,3)	(-4,1)	
L2C -51>	(16,2)	(53,2)	(49,1)	(6,1)	(1,22)	(0,6)	(3,11)	(-4,1)	(52,2)	(43,2)	(4,1)	(-1,5)	(9,1)	(10,1)	(41,1)	(44,2)	
L2C -50>	(1,25)	(-1,6)	(4,3)	(53,1)	(45,1)	(12,2)	(50,1)	(51,5)	(2,9)	(46,1)	(49,1)	(11,1)	(3,1)	(47,1)	(10,1)	(19,1)	
L2C -49>	(-1,10)	(-3,5)	(0,4)	(1,34)	(48,2)	(16,2)	(-2,8)	(-4,1)	(2,10)	(25,1)	(4,2)	(18,1)	(7,3)	(30,1)	(5,1)	(49,2)	
L2C -48>	(1,21)	(48,18)	(49,9)	(50,2)	(2,2)	(51,2)	(-3,3)	(-1,8)	(-5,1)	(44,1)	(53,1)	(0,3)	(14,1)	(31,1)	(15,2)	(-6,1)	
L2C -47>	(1,26)	(14,2)	(8,3)	(13,2)	(47,5)	(2,3)	(51,2)	(27,1)	(43,1)	(20,2)	(3,6)	(7,1)	(12,1)	(0,2)	(-1,4)	(-5,1)	
L2C -46>	(3,5)	(44,7)	(1,19)	(-1,4)	(-5,1)	(10,1)	(16,1)	(37,1)	(29,1)	(-3,1)	(4,8)	(48,1)	(19,1)	(42,1)	(6,2)	(41,1)	
L2C -45>	(1,19)	(45,1)	(-1,10)	(0,1)	(2,10)	(38,1)	(53,1)	(42,2)	(-7,2)	(-2,3)	(7,3)	(6,6)	(10,2)	(47,1)	(11,1)	(17,1)	
L2C -44>	(1,23)	(2,16)	(3,4)	(5,5)	(44,13)	(39,2)	(11,3)	(-1,6)	(63,1)	(-2,3)	(19,2)	(50,3)	(13,2)	(8,2)	(7,8)	(48,1)	
L2C -43>	(1,26)	(0,2)	(-1,10)	(-2,2)	(44,8)	(42,2)	(28,3)	(2,5)	(5,3)	(52,1)	(27,1)	(7,3)	(25,1)	(16,1)	(57,1)	(8,2)	
L2C -42>	(41,1)	(1,66)	(3,14)	(43,3)	(2,2)	(5,3)	(52,2)	(10,2)	(11,3)	(-1,12)	(40,3)	(0,5)	(-6,3)	(-3,2)	(13,2)	(42,14)	
L2C -41>	(1,47)	(3,5)	(2,10)	(-1,11)	(39,2)	(0,18)	(40,3)	(5,1)	(15,3)	(27,1)	(16,3)	(-5,3)	(4,5)	(7,4)	(41,11)	(19,1)	
L2C -40>	(1,21)	(3,6)	(0,7)	(41,26)	(-1,15)	(18,1)	(40,6)	(10,1)	(39,7)	(14,3)	(32,1)	(38,3)	(2,4)	(31,1)	(9,2)	(48,1)	
L2C -39>	(1,48)	(41,19)	(37,10)	(40,112)	(-1,16)	(33,3)	(38,16)	(42,11)	(3,4)	(5,1)	(-2,12)	(0,8)	(39,18)	(36,7)	(2,25)	(46,3)	
L2C -38>	(40,3)	(41,1)	(2,20)	(1,31)	(36,5)	(39,27)	(34,1)	(-12,1)	(-1,10)	(-16,1)	(-2,2)	(3,11)	(38,1)	(10,2)	(29,1)	(0,5)	
L2C -37>	(2,14)	(1,45)	(0,11)	(40,25)	(9,2)	(-19,1)	(-1,4)	(33,3)	(5,4)	(41,4)	(25,1)	(38,7)	(30,1)	(-2,4)	(3,8)	(39,3)	
L2C -36>	(1,64)	(37,5)	(6,3)	(2,11)	(31,1)	(0,4)	(38,4)	(30,2)	(3,22)	(-3,3)	(42,3)	(29,1)	(18,2)	(52,2)	(4,3)	(-1,7)	
L2C -35>	(-1,11)	(5,3)	(1,71)	(2,28)	(3,10)	(0,3)	(-15,4)	(43,2)	(4,2)	(27,2)	(49,2)	(40,1)	(-9,1)	(32,1)	(33,17)	(54,1)	
L2C -34>	(33,11)	(1,59)	(2,22)	(39,3)	(16,2)	(0,6)	(3,3)	(35,5)	(7,1)	(-1,12)	(31,4)	(19,5)	(25,1)	(10,1)	(41,3)	(29,5)	
L2C -33>	(-11,2)	(1,57)	(3,23)	(2,64)	(-1,13)	(34,8)	(9,5)	(13,6)	(28,8)	(10,3)	(38,8)	(33,9)	(-10,1)	(8,4)	(21,1)	(6,4)	
L2C -32>	(1,80)	(3,33)	(-1,20)	(-4,2)	(2,60)	(6,3)	(14,3)	(-2,2)	(5,2)	(43,2)	(-3,2)	(8,8)	(-7,1)	(0,5)	(32,2)	(33,4)	
L2C -31>	(1,74)	(2,50)	(32,5)	(-1,19)	(12,2)	(-10,1)	(3,22)	(-17,1)	(30,2)	(4,3)	(6,6)	(-15,3)	(-2,6)	(29,2)	(0,6)	(27,3)	
L2C -30>	(1,58)	(3,20)	(12,14)	(38,3)	(6,18)	(-1,30)	(-2,4)	(2,54)	(33,4)	(-5,3)	(25,2)	(14,3)	(15,1)	(27,3)	(35,1)	(47,1)	
L2C -29>	(9,4)	(1,70)	(3,20)	(2,47)	(7,6)	(-3,4)	(28,6)	(0,7)	(30,5)	(4,2)	(5,1)	(33,2)	(32,3)	(6,5)	(-1,18)	(-12,1)	
L2C -28>	(31,1)	(26,3)	(1,72)	(17,5)	(-3,7)	(7,2)	(-1,14)	(-19,2)	(29,6)	(16,5)	(3,11)	(5,5)	(25,3)	(32,2)	(2,30)	(20,3)	
L2C -27>	(1,51)	(12,3)	(28,4)	(-14,10)	(-4,2)	(-5,2)	(4,8)	(3,26)	(-1,30)	(0,2)	(2,59)	(29,1)	(-19,2)	(37,1)	(57,1)	(7,1)	
L2C -26>	(12,4)	(1,54)	(7,3)	(30,6)	(-2,7)	(25,5)	(32,1)	(38,2)	(15,2)	(-28,1)	(-14,1)	(2,10)	(-1,36)	(3,11)	(19,2)	(6,7)	
L2C -25>	(1,44)	(2,21)	(4,9)	(10,12)	(13,1)	(24,2)	(-1,46)	(6,9)	(25,3)	(44,2)	(17,4)	(21,3)	(26,4)	(27,4)	(16,4)	(9,20)	
L2C -24>	(25,7)	(3,9)	(17,6)	(-1,44)	(1,57)	(22,3)	(2,18)	(-2,8)	(6,14)	(4,11)	(21,4)	(8,5)	(15,4)	(23,1)	(11,3)	(20,2)	
L2C -23>	(1,63)	(6,3)	(0,7)	(31,3)	(2,16)	(7,6)	(19,5)	(4,4)	(32,2)	(-1,32)	(18,4)	(16,3)	(-2,6)	(38,2)	(48,3)	(21,4)	
L2C -22>	(1,60)	(21,28)	(11,11)	(23,37)	(-1,41)	(0,5)	(6,15)	(3,11)	(16,5)	(15,1)	(4,8)	(24,8)	(2,13)	(-17,4)	(7,5)	(-3,14)	
L2C -21>	(19,6)	(1,42)	(2,21)	(7,1)	(8,5)	(20,14)	(-1,39)	(14,4)	(-15,4)	(-2,12)	(12,7)	(6,13)	(11,6)	(-5,3)	(23,6)	(9,6)	
L2C -20>	(-1,27)	(15,5)	(-5,8)	(10,4)	(1,53)	(-4,8)	(-13,1)	(20,3)	(13,6)	(8,6)	(5,5)	(19,5)	(2,16)	(6,6)	(23,6)	(53,2)	
L2C -19>	(1,100)	(12,10)	(3,47)	(6,6)	(-6,1)	(18,6)	(16,5)	(19,6)	(22,6)	(0,11)	(-3,4)	(-1,32)	(20,5)	(11,6)	(2,26)	(9,4)	
L2C -18>	(1,244)	(2,37)	(-2,21)	(7,12)	(20,6)	(3,12)	(0,15)	(-5,10)	(-1,18)	(18,1)	(16,26)	(25,5)	(27,10)	(-6,12)	(17,17)	(19,71)	
L2C -17>	(12,5)	(48,1)	(1,203)	(18,58)	(-5,5)	(2,24)	(19,24)	(28,2)	(-7,2)	(-3,4)	(-2,107)	(-1,18)	(6,2)	(3,19)	(22,4)	(26,5)	
L2C -16>	(2,183)	(8,5)	(1,109)	(4,10)	(0,30)	(18,21)	(5,5)	(-3,7)	(-1,19)	(9,9)	(11,6)	(16,23)	(23,1)	(17,11)	(3,193)	(7,2)	
L2C -15>	(7,15)	(1,165)	(-1,32)	(13,9)	(-5,8)	(2,16)	(-12,7)	(11,10)	(27,1)	(-6,8)	(12,9)	(5,7)	(32,2)	(-10,4)	(3,8)	(-19,3)	
L2C -14>	(1,132)	(13,17)	(-1,30)	(5,9)	(2,20)	(19,1)	(17,15)	(8,22)	(33,4)	(28,10)	(20,9)	(3,81)	(-3,13)	(16,9)	(15,18)	(14,8)	
L2C -13>	(1,172)	(15,6)	(4,11)	(6,12)	(-5,16)	(21,4)	(16,8)	(3,8)	(18,1)	(48,3)	(14,18)	(-1,25)	(12,11)	(-9,6)	(17,10)	(9,8)	
L2C -12>	(1,155)	(3,14)	(13,12)	(7,14)	(0,10)	(14,14)	(-6,1)	(11,10)	(2,18)	(18,6)	(8,11)	(-2,7)	(10,18)	(6,9)	(-1,35)	(17,8)	
L2C -11>	(1,177)	(0,14)	(10,7)	(7,3)	(17,11)	(-6,1)	(-1,27)	(12,17)	(15,2)	(3,12)	(-2,4)	(2,13)	(48,2)	(9,9)	(-5,6)	(13,15)	
L2C -10>	(15,1)	(1,149)	(25,4)	(4,18)	(5,11)	(9,15)	(16,4)	(2,13)	(3,25)	(0,55)	(42,3)	(-5,15)	(-1,53)	(-17,5)	(11,20)	(12,22)	
L2C -9>	(1,144)	(10,1)	(6,38)	(-13,6)	(-1,41)	(16,10)	(2,34)	(4,14)	(17,9)	(3,42)	(-3,9)	(25,4)	(-16,10)	(-11,5)	(5,13)	(-5,17)	
L2C -8>	(1,182)	(6,11)	(7,93)	(8,42)	(5,13)	(-6,9)	(0,34)	(-1,42)	(15,5)	(2,41)	(-10,6)	(3,24)	(-17,5)	(59,1)	(22,4)	(50,3)	
L2C -7>	(1,218)	(16,8)	(-40,1)	(17,6)	(-3,10)	(-1,114)	(2,63)	(4,20)	(-11,8)	(-7,9)	(8,64)	(5,60)	(6,30)	(7,74)	(0,40)	(25,10)	
L2C -6>	(2,30)	(1,160)	(4,34)	(-1,62)	(5,41)	(-2,17)	(7,60)	(9,46)	(6,69)	(-9,7)	(3,42)	(18,4)	(-4,4)	(-27,8)	(10,8)	(-11,1)	
L2C -5>	(2,59)	(1,128)	(22,10)	(8,111)	(5,35)	(-1,124)	(4,56)	(3,52)	(6,104)	(7,89)	(0,38)	(-21,7)	(9,35)	(-27,16)	(-8,1)	(17,10)	
L2C -4>	(1,21)	(2,9)	(-4,1)	(4,3)	(-25,1)	(5,145)	(-1,8)	(-3,2)	(-12,1)	(3,6)	(0,1)	(6,1)	(-17,1)	(-27,1)	(-31,1)	(7,5)	
L2C -3>	(4,218)	(1,205)	(22,27)	(6,38)	(2,51)	(-2,4)	(3,76)	(-32,7)	(8,11)	(5,241)	(0,52)	(-1,212)	(9,12)	(-11,2)	(-8,1)	(7,150)	
L2C -2>	(49,1)	(-16,0)	(1,144)	(4,8)	(-3,0)	(27,0)	(6,0)	(3,5)	(22,0)	(0,12)	(-1,4)	(-9,0)	(5,5)	(26,0)	(2,1)	(35,0)	
L2C -1>	(21,1)	(4,201)	(5,7)	(2,201)	(3,56)	(31,1)	(-1,12)	(0,12)	(-44,1)	(-19,1)	(-3,1)	(-16,1)	(7,2)	(17,1)	(20,1)	(1,22)	
L2C 0>	(1,7)	(-5,0)	(-4,1)	(0,177)	(29,0)	(-1,52)	(6,0)	(3,2)	(-50,0)	(-57,0)	(4,0)	(8,0)	(2,1)	(-6,1)	(-2,0)	(-3,0)	
L2C 1>	(1,161)	(2,60)	(-4,7)	(15,1)	(-3,8)	(-21,1)	(-30,0)	(31,0)	(-12,0)	(0,2)	(-1,9)	(18,1)	(3,109)	(-5,1)	(4,0)	(-2,10)	
L2C 2>	(1,94)	(2,63)	(-60,1)	(-3,1)	(-1,186)	(-41,1)	(4,0)	(-55,0)	(-39,0)	(-4,2)	(-22,0)	(18,2)	(-16,0)	(3,61)	(-25,0)	(-2,5)	
L2C 3>	(-1,240)	(1,62)	(2,96)	(35,1)	(48,1)	(-2,19)	(42,1)	(21,1)	(0,1)	(-41,0)	(3,2)	(-4,3)	(18,0)	(-44,0)	(-3,1)	(19,1)	
L2C 4>	(1,22)	(-2,254)	(2,6)	(8,1)	(-1,45)	(13,1)	(5,1)	(19,0)	(21,0)	(-5,1)	(-3,2)	(14,0)	(-4,1)	(3,1)	(-37,0)	(18,2)	
L2C 5>	(1,27)	(2,177)	(3,1)	(-17,1)	(-1,1)	(22,1)	(-24,1)	(-13,1)	(0,1)	(-5,1)	(-3,1)	(-2,0)	(-32,0)	(-4,0)	(18,19)	(-6,3)	
L2C 6>	(1,207)	(2,40)	(-4,14)	(-5,100)	(-1,153)	(-2,204)	(-16,87)	(15,40)	(0,54)	(14,43)	(-7,23)	(5,1)	(-6,30)	(3,34)	(6,9)	(-3,7)	
L2C 7>	(1,136)	(-1,228)	(-3,1)	(-6,49)	(14,26)	(2,12)	(-16,10)	(-7,23)	(-18,2)	(-5,26)	(17,1)	(6,3)	(3,4)	(-8,2)	(-2,11)	(0,18)	
L2C 8>	(1,227)	(-3,14)	(14,8)	(0,19)	(-9,5)	(2,44)	(-5,44)	(-2,11)	(-7,40)	(8,3)	(-1,50)	(19,6)	(-6,10)	(-8,31)	(17,5)	(-17,1)	
L2C 9>	(1,230)	(19,11)	(14,9)	(3,4)	(-8,30)	(-1,37)	(-16,1)	(-12,17)	(2,37)	(0,4)	(-2,27)	(-11,17)	(6,6)	(5,5)	(-7,16)	(-6,14)	
L2C 10>	(-13,5)	(-1,58)	(-16,13)	(1,146)	(-6,6)	(-11,12)	(10,6)	(-2,22)	(2,56)	(-12,34)	(-5,14)	(5,8)	(-17,1)	(6,12)	(3,18)	(4,11)	
L2C 11>	(1,139)	(4,6)	(-3,7)	(-1,65)	(-11,8)	(-2,13)	(-15,1)	(2,22)	(9,8)	(-13,9)	(20,6)	(11,14)	(17,3)	(-10,16)	(-6,14)	(-8,16)	
L2C 12>	(-11,29)	(-1,46)	(-4,18)	(-2,13)	(6,10)	(-13,17)	(2,34)	(-12,7)	(-7,1)	(1,132)	(-9,9)	(3,6)	(-6,26)	(14,5)	(-3,10)	(7,12)	
L2C 13>	(-12,11)	(-9,13)	(1,194)	(-14,7)	(2,32)	(4,27)	(-1,37)	(-4,1)	(-3,8)	(-6,12)	(6,7)	(-5,27)	(-8,5)	(3,12)	(-22,3)	(-13,8)	
L2C 14>	(-5,18)	(-13,32)	(1,128)	(2,38)	(4,13)	(-15,1)	(5,9)	(-16,4)	(-1,33)	(7,6)	(-7,6)	(3,4)	(0,18)	(-10,4)	(-11,7)	(-17,30)	
L2C 15>	(3,8)	(2,49)	(0,4)	(-11,14)	(1,98)	(-16,15)	(-1,25)	(-3,12)	(-33,4)	(-4,10)	(-5,14)	(-6,7)	(6,3)	(-9,7)	(-2,14)	(-39,1)	
L2C 16>	(1,103)	(-12,6)	(-1,31)	(2,72)	(21,1)	(-16,70)	(-9,3)	(-4,11)	(0,20)	(-15,10)	(-17,7)	(-3,5)	(-6,5)	(-22,17)	(-14,8)	(-5,17)	
L2C 17>	(1,95)	(-16,21)	(-9,15)	(-1,23)	(-14,24)	(-17,22)	(2,34)	(3,8)	(-4,1)	(-19,2)	(-8,12)	(-22,6)	(-5,21)	(-24,2)	(4,8)	(-18,27)	
L2C 18>	(-17,212)	(3,1)	(-16,17)	(-19,5)	(1,5)	(-22,1)	(-6,2)	(-15,1)	(-20,2)	(-8,1)	(19,3)	(-31,1)	(-2,1)	(-5,1)	(2,1)	(-1,3)	
L2C 19>	(-1,94)	(1,77)	(-17,33)	(-13,7)	(-18,239)	(-7,18)	(-20,19)	(2,39)	(-16,45)	(19,6)	(-6,7)	(-19,6)	(-29,1)	(33,8)	(-14,8)	(16,3)	
L2C 20>	(-18,83)	(-1,25)	(-2,4)	(-20,2)	(-12,3)	(33,7)	(1,47)	(-22,27)	(-19,11)	(3,6)	(-45,1)	(-17,78)	(-16,8)	(-21,9)	(-8,8)	(-6,9)	
L2C 21>	(1,73)	(19,1)	(20,2)	(-1,23)	(2,13)	(-6,5)	(-13,3)	(-16,2)	(-15,5)	(-18,7)	(-21,5)	(-11,3)	(-4,12)	(-17,5)	(-24,8)	(-22,38)	
L2C 22>	(1,54)	(-16,8)	(-18,160)	(-19,4)	(-27,1)	(-1,43)	(-25,2)	(2,11)	(33,2)	(-22,21)	(-17,56)	(-31,10)	(-3,2)	(-20,4)	(23,2)	(0,6)	
L2C 23>	(1,103)	(-16,21)	(-27,7)	(-2,6)	(-9,4)	(-22,52)	(-18,210)	(-19,6)	(-13,4)	(-24,4)	(6,5)	(2,10)	(4,1)	(-21,6)	(-4,2)	(-17,9)	
L2C 24>	(-18,7)	(-17,7)	(-1,9)	(-6,4)	(3,6)	(1,60)	(2,6)	(-23,6)	(-16,4)	(-22,41)	(-15,3)	(6,6)	(-7,5)	(-24,6)	(-31,1)	(-9,4)	
L2C 25>	(-1,27)	(-22,18)	(-16,4)	(-24,5)	(-27,3)	(1,109)	(-20,3)	(-26,7)	(-7,4)	(-2,6)	(-5,6)	(-10,3)	(-31,4)	(-23,4)	(-30,1)	(-4,5)	
L2C 26>	(-27,4)	(1,63)	(4,1)	(-11,2)	(5,1)	(3,10)	(18,2)	(-17,11)	(-1,13)	(2,10)	(-32,1)	(-20,2)	(-39,2)	(-9,13)	(-22,8)	(-21,1)	
L2C 27>	(-26,6)	(-1,28)	(1,75)	(-6,3)	(14,2)	(3,4)	(7,1)	(-8,1)	(2,10)	(-18,4)	(-21,3)	(9,1)	(-9,5)	(-19,1)	(-5,4)	(-40,2)	
L2C 28>	(-5,2)	(-33,3)	(-27,10)	(1,92)	(2,3)	(-4,4)	(-1,32)	(-28,4)	(-6,2)	(-8,2)	(-32,6)	(4,3)	(-24,2)	(-30,2)	(-26,7)	(-34,3)	
L2C 29>	(1,76)	(-12,4)	(3,11)	(-5,6)	(-31,2)	(-28,11)	(2,8)	(10,2)	(-36,3)	(-27,8)	(-33,5)	(-21,2)	(-1,18)	(-45,2)	(-4,8)	(-29,1)	
L2C 30>	(-28,12)	(1,92)	(-12,5)	(-29,8)	(-22,8)	(-1,29)	(-50,1)	(-32,8)	(-14,2)	(-34,3)	(3,11)	(2,4)	(-2,5)	(-4,6)	(-18,5)	(-17,4)	
L2C 31>	(2,13)	(1,83)	(-16,6)	(-25,3)	(-1,32)	(-40,1)	(-29,9)	(-24,6)	(-30,5)	(-26,4)	(3,10)	(-22,3)	(4,6)	(-3,5)	(-35,3)	(-5,4)	
L2C 32>	(2,13)	(1,67)	(-24,3)	(-56,2)	(-5,6)	(-28,6)	(-31,7)	(-1,23)	(-34,3)	(-14,3)	(-33,3)	(-9,2)	(-32,5)	(3,6)	(-21,4)	(0,1)	
L2C 33>	(1,107)	(-15,3)	(2,14)	(-1,14)	(3,6)	(-32,12)	(-31,12)	(-39,3)	(-4,4)	(-12,1)	(-5,6)	(-47,1)	(-9,2)	(-56,1)	(-50,1)	(-11,2)	
L2C 34>	(2,14)	(-1,21)	(-2,3)	(1,67)	(3,5)	(-33,20)	(-27,2)	(-32,2)	(-37,2)	(-11,5)	(-16,2)	(0,1)	(-14,2)	(-3,3)	(-34,3)	(6,2)	
L2C 35>	(1,81)	(2,34)	(-1,13)	(-26,1)	(3,19)	(-4,2)	(-17,21)	(-34,3)	(-36,2)	(-2,6)	(8,2)	(-31,1)	(-3,1)	(-14,2)	(-6,1)	(-39,13)	
L2C 36>	(5,2)	(1,28)	(2,19)	(-1,14)	(-39,7)	(3,10)	(-5,3)	(-50,1)	(-34,2)	(-14,1)	(-35,9)	(4,3)	(-2,1)	(-51,1)	(-29,1)	(-22,4)	
L2C 37>	(-37,5)	(-35,2)	(-32,4)	(-4,2)	(1,47)	(-36,2)	(3,5)	(-39,30)	(2,26)	(-1,12)	(-24,2)	(-34,2)	(-7,1)	(-33,2)	(-3,4)	(-45,1)	
L2C 38>	(2,22)	(-1,20)	(4,3)	(1,58)	(-5,3)	(-39,16)	(-22,2)	(-32,1)	(21,1)	(-35,3)	(-6,2)	(-8,1)	(-27,2)	(-21,2)	(-26,1)	(-17,5)	
L2C 39>	(1,36)	(17,8)	(-18,3)	(3,3)	(-39,34)	(2,15)	(-38,6)	(-32,1)	(-3,6)	(-2,4)	(-40,6)	(-1,14)	(-12,1)	(8,1)	(-13,2)	(0,18)	
L2C 40>	(-39,77)	(1,157)	(-32,2)	(0,51)	(3,3)	(-20,2)	(6,2)	(-29,1)	(-1,26)	(-40,3)	(-34,3)	(-42,7)	(-37,2)	(-26,1)	(2,9)	(4,1)	
L2C 41>	(1,46)	(2,13)	(0,30)	(-42,30)	(-2,3)	(-27,1)	(-36,3)	(3,6)	(-41,9)	(-1,30)	(-40,3)	(-8,2)	(-34,1)	(-49,3)	(-39,40)	(-38,1)	
L2C 42>	(1,20)	(-1,20)	(-42,10)	(-41,11)	(-39,30)	(-26,2)	(-33,2)	(2,5)	(-14,3)	(-48,1)	(0,3)	(-17,1)	(-24,1)	(-55,1)	(-4,2)	(-49,1)	
L2C 43>	(2,3)	(1,17)	(-43,3)	(-42,4)	(-54,2)	(-1,5)	(-29,2)	(-39,24)	(-4,2)	(-41,3)	(-28,2)	(-44,4)	(-16,1)	(-2,1)	(-35,2)	(-13,1)	
L2C 44>	(-17,2)	(-35,2)	(-44,2)	(-3,2)	(0,13)	(1,20)	(-1,10)	(-28,2)	(-39,20)	(3,1)	(-43,4)	(-22,3)	(-33,2)	(2,8)	(-9,1)	(-32,3)	
L2C 45>	(2,8)	(-24,1)	(1,15)	(-33,5)	(-32,1)	(-4,1)	(-28,1)	(-38,4)	(-39,15)	(-17,2)	(-29,1)	(-11,1)	(-14,1)	(-35,4)	(-18,1)	(-1,14)	
L2C 46>	(1,27)	(3,4)	(2,3)	(-48,1)	(-25,3)	(-49,4)	(-39,6)	(-1,3)	(-37,1)	(-60,1)	(-43,4)	(-54,2)	(-52,1)	(-36,2)	(-45,5)	(-22,2)	
L2C 47>	(-24,3)	(-47,1)	(-46,3)	(1,26)	(-52,1)	(2,9)	(-48,2)	(10,1)	(5,1)	(-21,1)	(-17,2)	(-28,2)	(-34,4)	(-1,3)	(-39,7)	(-4,2)	
L2C 48>	(-49,23)	(-47,5)	(-54,18)	(1,28)	(-50,6)	(-48,24)	(6,5)	(-52,13)	(2,7)	(-39,4)	(-51,19)	(-44,3)	(0,4)	(-42,2)	(3,1)	(5,2)	
L2C 49>	(1,41)	(-31,2)	(-48,13)	(-52,3)	(-23,1)	(0,3)	(4,1)	(-22,1)	(-38,2)	(-3,2)	(-44,2)	(-39,4)	(-46,2)	(2,7)	(-58,2)	(-41,1)	
L2C 50>	(1,34)	(-49,6)	(-48,5)	(-41,1)	(4,3)	(-39,2)	(-40,1)	(-51,3)	(-57,2)	(2,9)	(-36,1)	(-46,1)	(-1,5)	(-42,2)	(-37,1)	(-52,2)	
L2C 51>	(1,19)	(2,3)	(-46,1)	(-52,6)	(0,3)	(-53,3)	(-33,1)	(-45,1)	(-39,2)	(-1,1)	(-36,2)	(-2,3)	(-47,4)	(-19,1)	(-51,3)	(-30,2)	
L2C 52>	(-59,1)	(1,19)	(-4,2)	(-53,8)	(-1,2)	(-13,3)	(-43,3)	(-20,3)	(3,4)	(-51,2)	(5,1)	(-41,1)	(0,3)	(-19,1)	(-45,1)	(-55,1)	
L2C 53>	(1,8)	(-52,1)	(-7,1)	(-51,3)	(-53,1)	(-54,2)	(3,1)	(7,1)	(-2,1)	(-56,1)	(0,2)	(-30,7)	(2,5)	(-42,1)	(-12,1)	(-63,1)	
L2C 54>	(-49,3)	(-56,4)	(-28,2)	(1,16)	(-48,1)	(-54,2)	(-30,3)	(-1,3)	(-45,1)	(4,1)	(0,2)	(-41,1)	(-7,1)	(-18,1)	(-3,1)	(2,1)	
L2C 55>	(1,9)	(-1,2)	(0,31)	(-17,1)	(-55,1)	(-57,7)	(-32,1)	(2,2)	(-33,1)	(-45,1)	(-54,2)	(-2,1)	(-34,1)	(1,0)	(1,0)	(1,0)	
L2C 56>	(0,3)	(1,10)	(-56,1)	(-44,1)	(-52,1)	(-28,1)	(-1,2)	(-30,1)	(-24,1)	(3,1)	(-58,2)	(-50,1)	(-61,1)	(-3,1)	(-4,1)	(-7,1)	
L2C 57>	(-26,1)	(-56,2)	(-57,6)	(0,1)	(-30,1)	(-46,2)	(-29,1)	(-1,1)	(-18,1)	(-28,1)	(1,2)	(1,0)	(1,0)	(1,0)	(1,0)	(1,0)	
L2C 58>	(1,7)	(3,1)	(-44,1)	(0,3)	(-1,1)	(-57,3)	(-10,1)	(2,1)	(-26,1)	(1,0)	(1,0)	(1,0)	(1,0)	(1,0)	(1,0)	(1,0)	
L2C 59>	(1,2)	(-3,2)	(-12,1)	(-1,1)	(-5,1)	(-61,1)	(1,0)	(1,0)	(1,0)	(1,0)	(1,0)	(1,0)	(1,0)	(1,0)	(1,0)	(1,0)	
L2C 60>	(1,3)	(3,1)	(-59,1)	(-26,1)	(-53,1)	(1,0)	(1,0)	(1,0)	(1,0)	(1,0)	(1,0)	(1,0)	(1,0)	(1,0)	(1,0)	(1,0)	
L2C 61>	(-8,2)	(-50,1)	(-60,1)	(-62,1)	(-47,1)	(-39,1)	(1,0)	(1,0)	(1,0)	(1,0)	(1,0)	(1,0)	(1,0)	(1,0)	(1,0)	(1,0)	
L2C 62>	(-34,1)	(-29,1)	(-58,2)	(-55,1)	(-6,1)	(1,0)	(1,0)	(1,0)	(1,0)	(1,0)	(1,0)	(1,0)	(1,0)	(1,0)	(1,0)	(1,0)	
L2C 63>	(-1,1)	(-20,1)	(1,0)	(1,0)	(1,0)	(1,0)	(1,0)	(1,0)	(1,0)	(1,0)	(1,0)	(1,0)	(1,0)	(1,0)	(1,0)	(1,0)	

DRAM Statistics
 CHANNEL 0
 RQ ROW_BUFFER_HIT:     304159  ROW_BUFFER_MISS:    1264037
 DBUS_CONGESTED:    1336825
 WQ ROW_BUFFER_HIT:      72201  ROW_BUFFER_MISS:     705230  FULL:          0

 AVG_CONGESTED_CYCLE: 6
