
*** ChampSim Multicore Out-of-Order Simulator ***

Warmup Instructions: 1000000
Simulation Instructions: 10000000
Number of CPUs: 1
LLC sets: 2048
LLC ways: 16
Off-chip DRAM Size: 4096 MB Channels: 1 Width: 64-bit Data Rate: 3200 MT/s

CPU 0 runs /home/virtualcse/Data-Prefetching/ChampSim/dpc3_traces/603.bwaves_s-3699B.champsimtrace.xz
Ultra pref. initializing...
Ultra pref. initialized
Ultra pref. initializing...
Ultra pref. initialized

Warmup complete CPU 0 instructions: 1000002 cycles: 336975 (Simulation time: 0 hr 0 min 2 sec) 

Heartbeat CPU 0 instructions: 10000000 cycles: 4653605 heartbeat IPC: 2.14887 cumulative IPC: 2.08496 (Simulation time: 0 hr 0 min 10 sec) 
Finished CPU 0 instructions: 10000000 cycles: 4793454 cumulative IPC: 2.08618 (Simulation time: 0 hr 0 min 11 sec) 

CPU 0 Branch Prediction Accuracy: 91.2893% MPKI: 12.4321 Average ROB Occupancy at Mispredict: 81.9045

ChampSim completed all CPUs

Region of Interest Statistics

CPU 0 cumulative IPC: 2.08618 instructions: 10000000 cycles: 4793454
L1D TOTAL     ACCESS:    2280519  HIT:    2280391  MISS:        128
L1D LOAD      ACCESS:     970732  HIT:     970732  MISS:          0
L1D RFO       ACCESS:     334947  HIT:     334863  MISS:         84
L1D PREFETCH  ACCESS:     974840  HIT:     974796  MISS:         44
L1D WRITEBACK ACCESS:          0  HIT:          0  MISS:          0
L1D PREFETCH  REQUESTED:   14069514  ISSUED:   11210735  USEFUL:         95  USELESS:          0
L1D AVERAGE MISS LATENCY: 86.1797 cycles
L1I TOTAL     ACCESS:     119275  HIT:     119275  MISS:          0
L1I LOAD      ACCESS:     119275  HIT:     119275  MISS:          0
L1I RFO       ACCESS:          0  HIT:          0  MISS:          0
L1I PREFETCH  ACCESS:          0  HIT:          0  MISS:          0
L1I WRITEBACK ACCESS:          0  HIT:          0  MISS:          0
L1I PREFETCH  REQUESTED:          0  ISSUED:          0  USEFUL:          0  USELESS:          0
L1I AVERAGE MISS LATENCY: -nan cycles
L2C TOTAL     ACCESS:        471  HIT:        307  MISS:        164
L2C LOAD      ACCESS:          0  HIT:          0  MISS:          0
L2C RFO       ACCESS:         81  HIT:         13  MISS:         68
L2C PREFETCH  ACCESS:        390  HIT:        294  MISS:         96
L2C WRITEBACK ACCESS:          0  HIT:          0  MISS:          0
L2C PREFETCH  REQUESTED:       7270  ISSUED:       3373  USEFUL:        127  USELESS:          0
L2C AVERAGE MISS LATENCY: 143.817 cycles
LLC TOTAL     ACCESS:        164  HIT:          0  MISS:        164
LLC LOAD      ACCESS:          0  HIT:          0  MISS:          0
LLC RFO       ACCESS:         68  HIT:          0  MISS:         68
LLC PREFETCH  ACCESS:         96  HIT:          0  MISS:         96
LLC WRITEBACK ACCESS:          0  HIT:          0  MISS:          0
LLC PREFETCH  REQUESTED:          0  ISSUED:          0  USEFUL:          0  USELESS:          0
LLC AVERAGE MISS LATENCY: 113.817 cycles
Major fault: 0 Minor fault: 32

L1D -512>	(-76,1)	(8,1)	(-4,1)	(-20,1)	(0,3)	(2,1)	(-1,1)	(1,5)	(25,2)	(1,0)	(1,0)	(1,0)	(1,0)	(1,0)	(1,0)	(1,0)	
L1D -511>	(1,0)	(1,0)	(1,0)	(1,0)	(1,0)	(1,0)	(1,0)	(1,0)	(1,0)	(1,0)	(1,0)	(1,0)	(1,0)	(1,0)	(1,0)	(1,0)	
L1D -510>	(1,0)	(1,0)	(1,0)	(1,0)	(1,0)	(1,0)	(1,0)	(1,0)	(1,0)	(1,0)	(1,0)	(1,0)	(1,0)	(1,0)	(1,0)	(1,0)	
L1D -509>	(1,0)	(1,0)	(1,0)	(1,0)	(1,0)	(1,0)	(1,0)	(1,0)	(1,0)	(1,0)	(1,0)	(1,0)	(1,0)	(1,0)	(1,0)	(1,0)	
L1D -508>	(1,0)	(1,0)	(1,0)	(1,0)	(1,0)	(1,0)	(1,0)	(1,0)	(1,0)	(1,0)	(1,0)	(1,0)	(1,0)	(1,0)	(1,0)	(1,0)	
L1D -507>	(1,0)	(1,0)	(1,0)	(1,0)	(1,0)	(1,0)	(1,0)	(1,0)	(1,0)	(1,0)	(1,0)	(1,0)	(1,0)	(1,0)	(1,0)	(1,0)	
L1D -506>	(1,0)	(1,0)	(1,0)	(1,0)	(1,0)	(1,0)	(1,0)	(1,0)	(1,0)	(1,0)	(1,0)	(1,0)	(1,0)	(1,0)	(1,0)	(1,0)	
L1D -505>	(1,0)	(1,0)	(1,0)	(1,0)	(1,0)	(1,0)	(1,0)	(1,0)	(1,0)	(1,0)	(1,0)	(1,0)	(1,0)	(1,0)	(1,0)	(1,0)	
L1D -504>	(1,0)	(1,0)	(1,0)	(1,0)	(1,0)	(1,0)	(1,0)	(1,0)	(1,0)	(1,0)	(1,0)	(1,0)	(1,0)	(1,0)	(1,0)	(1,0)	
L1D -503>	(1,0)	(1,0)	(1,0)	(1,0)	(1,0)	(1,0)	(1,0)	(1,0)	(1,0)	(1,0)	(1,0)	(1,0)	(1,0)	(1,0)	(1,0)	(1,0)	
L1D -502>	(1,0)	(1,0)	(1,0)	(1,0)	(1,0)	(1,0)	(1,0)	(1,0)	(1,0)	(1,0)	(1,0)	(1,0)	(1,0)	(1,0)	(1,0)	(1,0)	
L1D -501>	(1,0)	(1,0)	(1,0)	(1,0)	(1,0)	(1,0)	(1,0)	(1,0)	(1,0)	(1,0)	(1,0)	(1,0)	(1,0)	(1,0)	(1,0)	(1,0)	
L1D -500>	(1,0)	(1,0)	(1,0)	(1,0)	(1,0)	(1,0)	(1,0)	(1,0)	(1,0)	(1,0)	(1,0)	(1,0)	(1,0)	(1,0)	(1,0)	(1,0)	
L1D -499>	(1,0)	(1,0)	(1,0)	(1,0)	(1,0)	(1,0)	(1,0)	(1,0)	(1,0)	(1,0)	(1,0)	(1,0)	(1,0)	(1,0)	(1,0)	(1,0)	
L1D -498>	(1,0)	(1,0)	(1,0)	(1,0)	(1,0)	(1,0)	(1,0)	(1,0)	(1,0)	(1,0)	(1,0)	(1,0)	(1,0)	(1,0)	(1,0)	(1,0)	
L1D -497>	(1,0)	(1,0)	(1,0)	(1,0)	(1,0)	(1,0)	(1,0)	(1,0)	(1,0)	(1,0)	(1,0)	(1,0)	(1,0)	(1,0)	(1,0)	(1,0)	
L1D -496>	(1,0)	(1,0)	(1,0)	(1,0)	(1,0)	(1,0)	(1,0)	(1,0)	(1,0)	(1,0)	(1,0)	(1,0)	(1,0)	(1,0)	(1,0)	(1,0)	
L1D -495>	(1,0)	(1,0)	(1,0)	(1,0)	(1,0)	(1,0)	(1,0)	(1,0)	(1,0)	(1,0)	(1,0)	(1,0)	(1,0)	(1,0)	(1,0)	(1,0)	
L1D -494>	(1,0)	(1,0)	(1,0)	(1,0)	(1,0)	(1,0)	(1,0)	(1,0)	(1,0)	(1,0)	(1,0)	(1,0)	(1,0)	(1,0)	(1,0)	(1,0)	
L1D -493>	(1,0)	(1,0)	(1,0)	(1,0)	(1,0)	(1,0)	(1,0)	(1,0)	(1,0)	(1,0)	(1,0)	(1,0)	(1,0)	(1,0)	(1,0)	(1,0)	
L1D -492>	(1,0)	(1,0)	(1,0)	(1,0)	(1,0)	(1,0)	(1,0)	(1,0)	(1,0)	(1,0)	(1,0)	(1,0)	(1,0)	(1,0)	(1,0)	(1,0)	
L1D -491>	(1,0)	(1,0)	(1,0)	(1,0)	(1,0)	(1,0)	(1,0)	(1,0)	(1,0)	(1,0)	(1,0)	(1,0)	(1,0)	(1,0)	(1,0)	(1,0)	
L1D -490>	(1,0)	(1,0)	(1,0)	(1,0)	(1,0)	(1,0)	(1,0)	(1,0)	(1,0)	(1,0)	(1,0)	(1,0)	(1,0)	(1,0)	(1,0)	(1,0)	
L1D -489>	(1,0)	(1,0)	(1,0)	(1,0)	(1,0)	(1,0)	(1,0)	(1,0)	(1,0)	(1,0)	(1,0)	(1,0)	(1,0)	(1,0)	(1,0)	(1,0)	
L1D -488>	(1,0)	(1,0)	(1,0)	(1,0)	(1,0)	(1,0)	(1,0)	(1,0)	(1,0)	(1,0)	(1,0)	(1,0)	(1,0)	(1,0)	(1,0)	(1,0)	
L1D -487>	(1,0)	(1,0)	(1,0)	(1,0)	(1,0)	(1,0)	(1,0)	(1,0)	(1,0)	(1,0)	(1,0)	(1,0)	(1,0)	(1,0)	(1,0)	(1,0)	
L1D -486>	(1,0)	(1,0)	(1,0)	(1,0)	(1,0)	(1,0)	(1,0)	(1,0)	(1,0)	(1,0)	(1,0)	(1,0)	(1,0)	(1,0)	(1,0)	(1,0)	
L1D -485>	(1,0)	(1,0)	(1,0)	(1,0)	(1,0)	(1,0)	(1,0)	(1,0)	(1,0)	(1,0)	(1,0)	(1,0)	(1,0)	(1,0)	(1,0)	(1,0)	
L1D -484>	(1,0)	(1,0)	(1,0)	(1,0)	(1,0)	(1,0)	(1,0)	(1,0)	(1,0)	(1,0)	(1,0)	(1,0)	(1,0)	(1,0)	(1,0)	(1,0)	
L1D -483>	(1,0)	(1,0)	(1,0)	(1,0)	(1,0)	(1,0)	(1,0)	(1,0)	(1,0)	(1,0)	(1,0)	(1,0)	(1,0)	(1,0)	(1,0)	(1,0)	
L1D -482>	(1,0)	(1,0)	(1,0)	(1,0)	(1,0)	(1,0)	(1,0)	(1,0)	(1,0)	(1,0)	(1,0)	(1,0)	(1,0)	(1,0)	(1,0)	(1,0)	
L1D -481>	(1,0)	(1,0)	(1,0)	(1,0)	(1,0)	(1,0)	(1,0)	(1,0)	(1,0)	(1,0)	(1,0)	(1,0)	(1,0)	(1,0)	(1,0)	(1,0)	
L1D -480>	(1,0)	(1,0)	(1,0)	(1,0)	(1,0)	(1,0)	(1,0)	(1,0)	(1,0)	(1,0)	(1,0)	(1,0)	(1,0)	(1,0)	(1,0)	(1,0)	
L1D -479>	(1,0)	(1,0)	(1,0)	(1,0)	(1,0)	(1,0)	(1,0)	(1,0)	(1,0)	(1,0)	(1,0)	(1,0)	(1,0)	(1,0)	(1,0)	(1,0)	
L1D -478>	(1,0)	(1,0)	(1,0)	(1,0)	(1,0)	(1,0)	(1,0)	(1,0)	(1,0)	(1,0)	(1,0)	(1,0)	(1,0)	(1,0)	(1,0)	(1,0)	
L1D -477>	(1,0)	(1,0)	(1,0)	(1,0)	(1,0)	(1,0)	(1,0)	(1,0)	(1,0)	(1,0)	(1,0)	(1,0)	(1,0)	(1,0)	(1,0)	(1,0)	
L1D -476>	(1,0)	(1,0)	(1,0)	(1,0)	(1,0)	(1,0)	(1,0)	(1,0)	(1,0)	(1,0)	(1,0)	(1,0)	(1,0)	(1,0)	(1,0)	(1,0)	
L1D -475>	(1,0)	(1,0)	(1,0)	(1,0)	(1,0)	(1,0)	(1,0)	(1,0)	(1,0)	(1,0)	(1,0)	(1,0)	(1,0)	(1,0)	(1,0)	(1,0)	
L1D -474>	(1,0)	(1,0)	(1,0)	(1,0)	(1,0)	(1,0)	(1,0)	(1,0)	(1,0)	(1,0)	(1,0)	(1,0)	(1,0)	(1,0)	(1,0)	(1,0)	
L1D -473>	(1,0)	(1,0)	(1,0)	(1,0)	(1,0)	(1,0)	(1,0)	(1,0)	(1,0)	(1,0)	(1,0)	(1,0)	(1,0)	(1,0)	(1,0)	(1,0)	
L1D -472>	(1,0)	(1,0)	(1,0)	(1,0)	(1,0)	(1,0)	(1,0)	(1,0)	(1,0)	(1,0)	(1,0)	(1,0)	(1,0)	(1,0)	(1,0)	(1,0)	
L1D -471>	(1,0)	(1,0)	(1,0)	(1,0)	(1,0)	(1,0)	(1,0)	(1,0)	(1,0)	(1,0)	(1,0)	(1,0)	(1,0)	(1,0)	(1,0)	(1,0)	
L1D -470>	(1,0)	(1,0)	(1,0)	(1,0)	(1,0)	(1,0)	(1,0)	(1,0)	(1,0)	(1,0)	(1,0)	(1,0)	(1,0)	(1,0)	(1,0)	(1,0)	
L1D -469>	(1,0)	(1,0)	(1,0)	(1,0)	(1,0)	(1,0)	(1,0)	(1,0)	(1,0)	(1,0)	(1,0)	(1,0)	(1,0)	(1,0)	(1,0)	(1,0)	
L1D -468>	(1,0)	(1,0)	(1,0)	(1,0)	(1,0)	(1,0)	(1,0)	(1,0)	(1,0)	(1,0)	(1,0)	(1,0)	(1,0)	(1,0)	(1,0)	(1,0)	
L1D -467>	(1,0)	(1,0)	(1,0)	(1,0)	(1,0)	(1,0)	(1,0)	(1,0)	(1,0)	(1,0)	(1,0)	(1,0)	(1,0)	(1,0)	(1,0)	(1,0)	
L1D -466>	(1,0)	(1,0)	(1,0)	(1,0)	(1,0)	(1,0)	(1,0)	(1,0)	(1,0)	(1,0)	(1,0)	(1,0)	(1,0)	(1,0)	(1,0)	(1,0)	
L1D -465>	(1,0)	(1,0)	(1,0)	(1,0)	(1,0)	(1,0)	(1,0)	(1,0)	(1,0)	(1,0)	(1,0)	(1,0)	(1,0)	(1,0)	(1,0)	(1,0)	
L1D -464>	(1,0)	(1,0)	(1,0)	(1,0)	(1,0)	(1,0)	(1,0)	(1,0)	(1,0)	(1,0)	(1,0)	(1,0)	(1,0)	(1,0)	(1,0)	(1,0)	
L1D -463>	(1,0)	(1,0)	(1,0)	(1,0)	(1,0)	(1,0)	(1,0)	(1,0)	(1,0)	(1,0)	(1,0)	(1,0)	(1,0)	(1,0)	(1,0)	(1,0)	
L1D -462>	(1,0)	(1,0)	(1,0)	(1,0)	(1,0)	(1,0)	(1,0)	(1,0)	(1,0)	(1,0)	(1,0)	(1,0)	(1,0)	(1,0)	(1,0)	(1,0)	
L1D -461>	(1,0)	(1,0)	(1,0)	(1,0)	(1,0)	(1,0)	(1,0)	(1,0)	(1,0)	(1,0)	(1,0)	(1,0)	(1,0)	(1,0)	(1,0)	(1,0)	
L1D -460>	(1,0)	(1,0)	(1,0)	(1,0)	(1,0)	(1,0)	(1,0)	(1,0)	(1,0)	(1,0)	(1,0)	(1,0)	(1,0)	(1,0)	(1,0)	(1,0)	
L1D -459>	(1,0)	(1,0)	(1,0)	(1,0)	(1,0)	(1,0)	(1,0)	(1,0)	(1,0)	(1,0)	(1,0)	(1,0)	(1,0)	(1,0)	(1,0)	(1,0)	
L1D -458>	(1,0)	(1,0)	(1,0)	(1,0)	(1,0)	(1,0)	(1,0)	(1,0)	(1,0)	(1,0)	(1,0)	(1,0)	(1,0)	(1,0)	(1,0)	(1,0)	
L1D -457>	(1,0)	(1,0)	(1,0)	(1,0)	(1,0)	(1,0)	(1,0)	(1,0)	(1,0)	(1,0)	(1,0)	(1,0)	(1,0)	(1,0)	(1,0)	(1,0)	
L1D -456>	(1,0)	(1,0)	(1,0)	(1,0)	(1,0)	(1,0)	(1,0)	(1,0)	(1,0)	(1,0)	(1,0)	(1,0)	(1,0)	(1,0)	(1,0)	(1,0)	
L1D -455>	(1,0)	(1,0)	(1,0)	(1,0)	(1,0)	(1,0)	(1,0)	(1,0)	(1,0)	(1,0)	(1,0)	(1,0)	(1,0)	(1,0)	(1,0)	(1,0)	
L1D -454>	(1,0)	(1,0)	(1,0)	(1,0)	(1,0)	(1,0)	(1,0)	(1,0)	(1,0)	(1,0)	(1,0)	(1,0)	(1,0)	(1,0)	(1,0)	(1,0)	
L1D -453>	(1,0)	(1,0)	(1,0)	(1,0)	(1,0)	(1,0)	(1,0)	(1,0)	(1,0)	(1,0)	(1,0)	(1,0)	(1,0)	(1,0)	(1,0)	(1,0)	
L1D -452>	(1,0)	(1,0)	(1,0)	(1,0)	(1,0)	(1,0)	(1,0)	(1,0)	(1,0)	(1,0)	(1,0)	(1,0)	(1,0)	(1,0)	(1,0)	(1,0)	
L1D -451>	(1,0)	(1,0)	(1,0)	(1,0)	(1,0)	(1,0)	(1,0)	(1,0)	(1,0)	(1,0)	(1,0)	(1,0)	(1,0)	(1,0)	(1,0)	(1,0)	
L1D -450>	(1,0)	(1,0)	(1,0)	(1,0)	(1,0)	(1,0)	(1,0)	(1,0)	(1,0)	(1,0)	(1,0)	(1,0)	(1,0)	(1,0)	(1,0)	(1,0)	
L1D -449>	(1,0)	(1,0)	(1,0)	(1,0)	(1,0)	(1,0)	(1,0)	(1,0)	(1,0)	(1,0)	(1,0)	(1,0)	(1,0)	(1,0)	(1,0)	(1,0)	
L1D -448>	(1,0)	(1,0)	(1,0)	(1,0)	(1,0)	(1,0)	(1,0)	(1,0)	(1,0)	(1,0)	(1,0)	(1,0)	(1,0)	(1,0)	(1,0)	(1,0)	
L1D -447>	(1,0)	(1,0)	(1,0)	(1,0)	(1,0)	(1,0)	(1,0)	(1,0)	(1,0)	(1,0)	(1,0)	(1,0)	(1,0)	(1,0)	(1,0)	(1,0)	
L1D -446>	(1,0)	(1,0)	(1,0)	(1,0)	(1,0)	(1,0)	(1,0)	(1,0)	(1,0)	(1,0)	(1,0)	(1,0)	(1,0)	(1,0)	(1,0)	(1,0)	
L1D -445>	(1,0)	(1,0)	(1,0)	(1,0)	(1,0)	(1,0)	(1,0)	(1,0)	(1,0)	(1,0)	(1,0)	(1,0)	(1,0)	(1,0)	(1,0)	(1,0)	
L1D -444>	(1,0)	(1,0)	(1,0)	(1,0)	(1,0)	(1,0)	(1,0)	(1,0)	(1,0)	(1,0)	(1,0)	(1,0)	(1,0)	(1,0)	(1,0)	(1,0)	
L1D -443>	(1,0)	(1,0)	(1,0)	(1,0)	(1,0)	(1,0)	(1,0)	(1,0)	(1,0)	(1,0)	(1,0)	(1,0)	(1,0)	(1,0)	(1,0)	(1,0)	
L1D -442>	(1,0)	(1,0)	(1,0)	(1,0)	(1,0)	(1,0)	(1,0)	(1,0)	(1,0)	(1,0)	(1,0)	(1,0)	(1,0)	(1,0)	(1,0)	(1,0)	
L1D -441>	(1,0)	(1,0)	(1,0)	(1,0)	(1,0)	(1,0)	(1,0)	(1,0)	(1,0)	(1,0)	(1,0)	(1,0)	(1,0)	(1,0)	(1,0)	(1,0)	
L1D -440>	(1,0)	(1,0)	(1,0)	(1,0)	(1,0)	(1,0)	(1,0)	(1,0)	(1,0)	(1,0)	(1,0)	(1,0)	(1,0)	(1,0)	(1,0)	(1,0)	
L1D -439>	(1,0)	(1,0)	(1,0)	(1,0)	(1,0)	(1,0)	(1,0)	(1,0)	(1,0)	(1,0)	(1,0)	(1,0)	(1,0)	(1,0)	(1,0)	(1,0)	
L1D -438>	(1,0)	(1,0)	(1,0)	(1,0)	(1,0)	(1,0)	(1,0)	(1,0)	(1,0)	(1,0)	(1,0)	(1,0)	(1,0)	(1,0)	(1,0)	(1,0)	
L1D -437>	(1,0)	(1,0)	(1,0)	(1,0)	(1,0)	(1,0)	(1,0)	(1,0)	(1,0)	(1,0)	(1,0)	(1,0)	(1,0)	(1,0)	(1,0)	(1,0)	
L1D -436>	(1,0)	(1,0)	(1,0)	(1,0)	(1,0)	(1,0)	(1,0)	(1,0)	(1,0)	(1,0)	(1,0)	(1,0)	(1,0)	(1,0)	(1,0)	(1,0)	
L1D -435>	(1,0)	(1,0)	(1,0)	(1,0)	(1,0)	(1,0)	(1,0)	(1,0)	(1,0)	(1,0)	(1,0)	(1,0)	(1,0)	(1,0)	(1,0)	(1,0)	
L1D -434>	(1,0)	(1,0)	(1,0)	(1,0)	(1,0)	(1,0)	(1,0)	(1,0)	(1,0)	(1,0)	(1,0)	(1,0)	(1,0)	(1,0)	(1,0)	(1,0)	
L1D -433>	(1,0)	(1,0)	(1,0)	(1,0)	(1,0)	(1,0)	(1,0)	(1,0)	(1,0)	(1,0)	(1,0)	(1,0)	(1,0)	(1,0)	(1,0)	(1,0)	
L1D -432>	(1,0)	(1,0)	(1,0)	(1,0)	(1,0)	(1,0)	(1,0)	(1,0)	(1,0)	(1,0)	(1,0)	(1,0)	(1,0)	(1,0)	(1,0)	(1,0)	
L1D -431>	(1,0)	(1,0)	(1,0)	(1,0)	(1,0)	(1,0)	(1,0)	(1,0)	(1,0)	(1,0)	(1,0)	(1,0)	(1,0)	(1,0)	(1,0)	(1,0)	
L1D -430>	(1,0)	(1,0)	(1,0)	(1,0)	(1,0)	(1,0)	(1,0)	(1,0)	(1,0)	(1,0)	(1,0)	(1,0)	(1,0)	(1,0)	(1,0)	(1,0)	
L1D -429>	(1,0)	(1,0)	(1,0)	(1,0)	(1,0)	(1,0)	(1,0)	(1,0)	(1,0)	(1,0)	(1,0)	(1,0)	(1,0)	(1,0)	(1,0)	(1,0)	
L1D -428>	(1,0)	(1,0)	(1,0)	(1,0)	(1,0)	(1,0)	(1,0)	(1,0)	(1,0)	(1,0)	(1,0)	(1,0)	(1,0)	(1,0)	(1,0)	(1,0)	
L1D -427>	(1,0)	(1,0)	(1,0)	(1,0)	(1,0)	(1,0)	(1,0)	(1,0)	(1,0)	(1,0)	(1,0)	(1,0)	(1,0)	(1,0)	(1,0)	(1,0)	
L1D -426>	(1,0)	(1,0)	(1,0)	(1,0)	(1,0)	(1,0)	(1,0)	(1,0)	(1,0)	(1,0)	(1,0)	(1,0)	(1,0)	(1,0)	(1,0)	(1,0)	
L1D -425>	(1,0)	(1,0)	(1,0)	(1,0)	(1,0)	(1,0)	(1,0)	(1,0)	(1,0)	(1,0)	(1,0)	(1,0)	(1,0)	(1,0)	(1,0)	(1,0)	
L1D -424>	(1,0)	(1,0)	(1,0)	(1,0)	(1,0)	(1,0)	(1,0)	(1,0)	(1,0)	(1,0)	(1,0)	(1,0)	(1,0)	(1,0)	(1,0)	(1,0)	
L1D -423>	(1,0)	(1,0)	(1,0)	(1,0)	(1,0)	(1,0)	(1,0)	(1,0)	(1,0)	(1,0)	(1,0)	(1,0)	(1,0)	(1,0)	(1,0)	(1,0)	
L1D -422>	(1,0)	(1,0)	(1,0)	(1,0)	(1,0)	(1,0)	(1,0)	(1,0)	(1,0)	(1,0)	(1,0)	(1,0)	(1,0)	(1,0)	(1,0)	(1,0)	
L1D -421>	(1,0)	(1,0)	(1,0)	(1,0)	(1,0)	(1,0)	(1,0)	(1,0)	(1,0)	(1,0)	(1,0)	(1,0)	(1,0)	(1,0)	(1,0)	(1,0)	
L1D -420>	(1,0)	(1,0)	(1,0)	(1,0)	(1,0)	(1,0)	(1,0)	(1,0)	(1,0)	(1,0)	(1,0)	(1,0)	(1,0)	(1,0)	(1,0)	(1,0)	
L1D -419>	(1,0)	(1,0)	(1,0)	(1,0)	(1,0)	(1,0)	(1,0)	(1,0)	(1,0)	(1,0)	(1,0)	(1,0)	(1,0)	(1,0)	(1,0)	(1,0)	
L1D -418>	(1,0)	(1,0)	(1,0)	(1,0)	(1,0)	(1,0)	(1,0)	(1,0)	(1,0)	(1,0)	(1,0)	(1,0)	(1,0)	(1,0)	(1,0)	(1,0)	
L1D -417>	(1,0)	(1,0)	(1,0)	(1,0)	(1,0)	(1,0)	(1,0)	(1,0)	(1,0)	(1,0)	(1,0)	(1,0)	(1,0)	(1,0)	(1,0)	(1,0)	
L1D -416>	(1,0)	(1,0)	(1,0)	(1,0)	(1,0)	(1,0)	(1,0)	(1,0)	(1,0)	(1,0)	(1,0)	(1,0)	(1,0)	(1,0)	(1,0)	(1,0)	
L1D -415>	(1,0)	(1,0)	(1,0)	(1,0)	(1,0)	(1,0)	(1,0)	(1,0)	(1,0)	(1,0)	(1,0)	(1,0)	(1,0)	(1,0)	(1,0)	(1,0)	
L1D -414>	(1,0)	(1,0)	(1,0)	(1,0)	(1,0)	(1,0)	(1,0)	(1,0)	(1,0)	(1,0)	(1,0)	(1,0)	(1,0)	(1,0)	(1,0)	(1,0)	
L1D -413>	(1,0)	(1,0)	(1,0)	(1,0)	(1,0)	(1,0)	(1,0)	(1,0)	(1,0)	(1,0)	(1,0)	(1,0)	(1,0)	(1,0)	(1,0)	(1,0)	
L1D -412>	(1,0)	(1,0)	(1,0)	(1,0)	(1,0)	(1,0)	(1,0)	(1,0)	(1,0)	(1,0)	(1,0)	(1,0)	(1,0)	(1,0)	(1,0)	(1,0)	
L1D -411>	(1,0)	(1,0)	(1,0)	(1,0)	(1,0)	(1,0)	(1,0)	(1,0)	(1,0)	(1,0)	(1,0)	(1,0)	(1,0)	(1,0)	(1,0)	(1,0)	
L1D -410>	(1,0)	(1,0)	(1,0)	(1,0)	(1,0)	(1,0)	(1,0)	(1,0)	(1,0)	(1,0)	(1,0)	(1,0)	(1,0)	(1,0)	(1,0)	(1,0)	
L1D -409>	(1,0)	(1,0)	(1,0)	(1,0)	(1,0)	(1,0)	(1,0)	(1,0)	(1,0)	(1,0)	(1,0)	(1,0)	(1,0)	(1,0)	(1,0)	(1,0)	
L1D -408>	(1,0)	(1,0)	(1,0)	(1,0)	(1,0)	(1,0)	(1,0)	(1,0)	(1,0)	(1,0)	(1,0)	(1,0)	(1,0)	(1,0)	(1,0)	(1,0)	
L1D -407>	(1,0)	(1,0)	(1,0)	(1,0)	(1,0)	(1,0)	(1,0)	(1,0)	(1,0)	(1,0)	(1,0)	(1,0)	(1,0)	(1,0)	(1,0)	(1,0)	
L1D -406>	(1,0)	(1,0)	(1,0)	(1,0)	(1,0)	(1,0)	(1,0)	(1,0)	(1,0)	(1,0)	(1,0)	(1,0)	(1,0)	(1,0)	(1,0)	(1,0)	
L1D -405>	(1,0)	(1,0)	(1,0)	(1,0)	(1,0)	(1,0)	(1,0)	(1,0)	(1,0)	(1,0)	(1,0)	(1,0)	(1,0)	(1,0)	(1,0)	(1,0)	
L1D -404>	(1,0)	(1,0)	(1,0)	(1,0)	(1,0)	(1,0)	(1,0)	(1,0)	(1,0)	(1,0)	(1,0)	(1,0)	(1,0)	(1,0)	(1,0)	(1,0)	
L1D -403>	(1,0)	(1,0)	(1,0)	(1,0)	(1,0)	(1,0)	(1,0)	(1,0)	(1,0)	(1,0)	(1,0)	(1,0)	(1,0)	(1,0)	(1,0)	(1,0)	
L1D -402>	(1,0)	(1,0)	(1,0)	(1,0)	(1,0)	(1,0)	(1,0)	(1,0)	(1,0)	(1,0)	(1,0)	(1,0)	(1,0)	(1,0)	(1,0)	(1,0)	
L1D -401>	(1,0)	(1,0)	(1,0)	(1,0)	(1,0)	(1,0)	(1,0)	(1,0)	(1,0)	(1,0)	(1,0)	(1,0)	(1,0)	(1,0)	(1,0)	(1,0)	
L1D -400>	(1,0)	(1,0)	(1,0)	(1,0)	(1,0)	(1,0)	(1,0)	(1,0)	(1,0)	(1,0)	(1,0)	(1,0)	(1,0)	(1,0)	(1,0)	(1,0)	
L1D -399>	(1,0)	(1,0)	(1,0)	(1,0)	(1,0)	(1,0)	(1,0)	(1,0)	(1,0)	(1,0)	(1,0)	(1,0)	(1,0)	(1,0)	(1,0)	(1,0)	
L1D -398>	(1,0)	(1,0)	(1,0)	(1,0)	(1,0)	(1,0)	(1,0)	(1,0)	(1,0)	(1,0)	(1,0)	(1,0)	(1,0)	(1,0)	(1,0)	(1,0)	
L1D -397>	(1,0)	(1,0)	(1,0)	(1,0)	(1,0)	(1,0)	(1,0)	(1,0)	(1,0)	(1,0)	(1,0)	(1,0)	(1,0)	(1,0)	(1,0)	(1,0)	
L1D -396>	(1,0)	(1,0)	(1,0)	(1,0)	(1,0)	(1,0)	(1,0)	(1,0)	(1,0)	(1,0)	(1,0)	(1,0)	(1,0)	(1,0)	(1,0)	(1,0)	
L1D -395>	(1,0)	(1,0)	(1,0)	(1,0)	(1,0)	(1,0)	(1,0)	(1,0)	(1,0)	(1,0)	(1,0)	(1,0)	(1,0)	(1,0)	(1,0)	(1,0)	
L1D -394>	(1,0)	(1,0)	(1,0)	(1,0)	(1,0)	(1,0)	(1,0)	(1,0)	(1,0)	(1,0)	(1,0)	(1,0)	(1,0)	(1,0)	(1,0)	(1,0)	
L1D -393>	(1,0)	(1,0)	(1,0)	(1,0)	(1,0)	(1,0)	(1,0)	(1,0)	(1,0)	(1,0)	(1,0)	(1,0)	(1,0)	(1,0)	(1,0)	(1,0)	
L1D -392>	(1,0)	(1,0)	(1,0)	(1,0)	(1,0)	(1,0)	(1,0)	(1,0)	(1,0)	(1,0)	(1,0)	(1,0)	(1,0)	(1,0)	(1,0)	(1,0)	
L1D -391>	(1,0)	(1,0)	(1,0)	(1,0)	(1,0)	(1,0)	(1,0)	(1,0)	(1,0)	(1,0)	(1,0)	(1,0)	(1,0)	(1,0)	(1,0)	(1,0)	
L1D -390>	(1,0)	(1,0)	(1,0)	(1,0)	(1,0)	(1,0)	(1,0)	(1,0)	(1,0)	(1,0)	(1,0)	(1,0)	(1,0)	(1,0)	(1,0)	(1,0)	
L1D -389>	(1,0)	(1,0)	(1,0)	(1,0)	(1,0)	(1,0)	(1,0)	(1,0)	(1,0)	(1,0)	(1,0)	(1,0)	(1,0)	(1,0)	(1,0)	(1,0)	
L1D -388>	(1,0)	(1,0)	(1,0)	(1,0)	(1,0)	(1,0)	(1,0)	(1,0)	(1,0)	(1,0)	(1,0)	(1,0)	(1,0)	(1,0)	(1,0)	(1,0)	
L1D -387>	(1,0)	(1,0)	(1,0)	(1,0)	(1,0)	(1,0)	(1,0)	(1,0)	(1,0)	(1,0)	(1,0)	(1,0)	(1,0)	(1,0)	(1,0)	(1,0)	
L1D -386>	(1,0)	(1,0)	(1,0)	(1,0)	(1,0)	(1,0)	(1,0)	(1,0)	(1,0)	(1,0)	(1,0)	(1,0)	(1,0)	(1,0)	(1,0)	(1,0)	
L1D -385>	(1,0)	(1,0)	(1,0)	(1,0)	(1,0)	(1,0)	(1,0)	(1,0)	(1,0)	(1,0)	(1,0)	(1,0)	(1,0)	(1,0)	(1,0)	(1,0)	
L1D -384>	(1,0)	(1,0)	(1,0)	(1,0)	(1,0)	(1,0)	(1,0)	(1,0)	(1,0)	(1,0)	(1,0)	(1,0)	(1,0)	(1,0)	(1,0)	(1,0)	
L1D -383>	(1,0)	(1,0)	(1,0)	(1,0)	(1,0)	(1,0)	(1,0)	(1,0)	(1,0)	(1,0)	(1,0)	(1,0)	(1,0)	(1,0)	(1,0)	(1,0)	
L1D -382>	(1,0)	(1,0)	(1,0)	(1,0)	(1,0)	(1,0)	(1,0)	(1,0)	(1,0)	(1,0)	(1,0)	(1,0)	(1,0)	(1,0)	(1,0)	(1,0)	
L1D -381>	(1,0)	(1,0)	(1,0)	(1,0)	(1,0)	(1,0)	(1,0)	(1,0)	(1,0)	(1,0)	(1,0)	(1,0)	(1,0)	(1,0)	(1,0)	(1,0)	
L1D -380>	(1,0)	(1,0)	(1,0)	(1,0)	(1,0)	(1,0)	(1,0)	(1,0)	(1,0)	(1,0)	(1,0)	(1,0)	(1,0)	(1,0)	(1,0)	(1,0)	
L1D -379>	(1,0)	(1,0)	(1,0)	(1,0)	(1,0)	(1,0)	(1,0)	(1,0)	(1,0)	(1,0)	(1,0)	(1,0)	(1,0)	(1,0)	(1,0)	(1,0)	
L1D -378>	(1,0)	(1,0)	(1,0)	(1,0)	(1,0)	(1,0)	(1,0)	(1,0)	(1,0)	(1,0)	(1,0)	(1,0)	(1,0)	(1,0)	(1,0)	(1,0)	
L1D -377>	(1,0)	(1,0)	(1,0)	(1,0)	(1,0)	(1,0)	(1,0)	(1,0)	(1,0)	(1,0)	(1,0)	(1,0)	(1,0)	(1,0)	(1,0)	(1,0)	
L1D -376>	(1,0)	(1,0)	(1,0)	(1,0)	(1,0)	(1,0)	(1,0)	(1,0)	(1,0)	(1,0)	(1,0)	(1,0)	(1,0)	(1,0)	(1,0)	(1,0)	
L1D -375>	(1,0)	(1,0)	(1,0)	(1,0)	(1,0)	(1,0)	(1,0)	(1,0)	(1,0)	(1,0)	(1,0)	(1,0)	(1,0)	(1,0)	(1,0)	(1,0)	
L1D -374>	(1,0)	(1,0)	(1,0)	(1,0)	(1,0)	(1,0)	(1,0)	(1,0)	(1,0)	(1,0)	(1,0)	(1,0)	(1,0)	(1,0)	(1,0)	(1,0)	
L1D -373>	(1,0)	(1,0)	(1,0)	(1,0)	(1,0)	(1,0)	(1,0)	(1,0)	(1,0)	(1,0)	(1,0)	(1,0)	(1,0)	(1,0)	(1,0)	(1,0)	
L1D -372>	(1,0)	(1,0)	(1,0)	(1,0)	(1,0)	(1,0)	(1,0)	(1,0)	(1,0)	(1,0)	(1,0)	(1,0)	(1,0)	(1,0)	(1,0)	(1,0)	
L1D -371>	(1,0)	(1,0)	(1,0)	(1,0)	(1,0)	(1,0)	(1,0)	(1,0)	(1,0)	(1,0)	(1,0)	(1,0)	(1,0)	(1,0)	(1,0)	(1,0)	
L1D -370>	(1,0)	(1,0)	(1,0)	(1,0)	(1,0)	(1,0)	(1,0)	(1,0)	(1,0)	(1,0)	(1,0)	(1,0)	(1,0)	(1,0)	(1,0)	(1,0)	
L1D -369>	(1,0)	(1,0)	(1,0)	(1,0)	(1,0)	(1,0)	(1,0)	(1,0)	(1,0)	(1,0)	(1,0)	(1,0)	(1,0)	(1,0)	(1,0)	(1,0)	
L1D -368>	(1,0)	(1,0)	(1,0)	(1,0)	(1,0)	(1,0)	(1,0)	(1,0)	(1,0)	(1,0)	(1,0)	(1,0)	(1,0)	(1,0)	(1,0)	(1,0)	
L1D -367>	(1,0)	(1,0)	(1,0)	(1,0)	(1,0)	(1,0)	(1,0)	(1,0)	(1,0)	(1,0)	(1,0)	(1,0)	(1,0)	(1,0)	(1,0)	(1,0)	
L1D -366>	(1,0)	(1,0)	(1,0)	(1,0)	(1,0)	(1,0)	(1,0)	(1,0)	(1,0)	(1,0)	(1,0)	(1,0)	(1,0)	(1,0)	(1,0)	(1,0)	
L1D -365>	(1,0)	(1,0)	(1,0)	(1,0)	(1,0)	(1,0)	(1,0)	(1,0)	(1,0)	(1,0)	(1,0)	(1,0)	(1,0)	(1,0)	(1,0)	(1,0)	
L1D -364>	(1,0)	(1,0)	(1,0)	(1,0)	(1,0)	(1,0)	(1,0)	(1,0)	(1,0)	(1,0)	(1,0)	(1,0)	(1,0)	(1,0)	(1,0)	(1,0)	
L1D -363>	(1,0)	(1,0)	(1,0)	(1,0)	(1,0)	(1,0)	(1,0)	(1,0)	(1,0)	(1,0)	(1,0)	(1,0)	(1,0)	(1,0)	(1,0)	(1,0)	
L1D -362>	(1,0)	(1,0)	(1,0)	(1,0)	(1,0)	(1,0)	(1,0)	(1,0)	(1,0)	(1,0)	(1,0)	(1,0)	(1,0)	(1,0)	(1,0)	(1,0)	
L1D -361>	(1,0)	(1,0)	(1,0)	(1,0)	(1,0)	(1,0)	(1,0)	(1,0)	(1,0)	(1,0)	(1,0)	(1,0)	(1,0)	(1,0)	(1,0)	(1,0)	
L1D -360>	(1,0)	(1,0)	(1,0)	(1,0)	(1,0)	(1,0)	(1,0)	(1,0)	(1,0)	(1,0)	(1,0)	(1,0)	(1,0)	(1,0)	(1,0)	(1,0)	
L1D -359>	(1,0)	(1,0)	(1,0)	(1,0)	(1,0)	(1,0)	(1,0)	(1,0)	(1,0)	(1,0)	(1,0)	(1,0)	(1,0)	(1,0)	(1,0)	(1,0)	
L1D -358>	(132,7)	(131,10)	(352,3)	(357,2)	(353,2)	(356,1)	(1,0)	(1,0)	(1,0)	(1,0)	(1,0)	(1,0)	(1,0)	(1,0)	(1,0)	(1,0)	
L1D -357>	(131,14)	(356,3)	(352,2)	(130,1)	(-1,1)	(125,2)	(354,1)	(347,1)	(355,1)	(129,1)	(1,0)	(1,0)	(1,0)	(1,0)	(1,0)	(1,0)	
L1D -356>	(130,8)	(128,1)	(-1,1)	(131,1)	(1,0)	(1,0)	(1,0)	(1,0)	(1,0)	(1,0)	(1,0)	(1,0)	(1,0)	(1,0)	(1,0)	(1,0)	
L1D -355>	(129,1)	(352,2)	(127,1)	(353,2)	(342,1)	(131,1)	(1,0)	(1,0)	(1,0)	(1,0)	(1,0)	(1,0)	(1,0)	(1,0)	(1,0)	(1,0)	
L1D -354>	(128,3)	(349,3)	(131,2)	(357,2)	(348,2)	(342,1)	(1,0)	(1,0)	(1,0)	(1,0)	(1,0)	(1,0)	(1,0)	(1,0)	(1,0)	(1,0)	
L1D -353>	(354,1)	(358,1)	(126,1)	(1,0)	(1,0)	(1,0)	(1,0)	(1,0)	(1,0)	(1,0)	(1,0)	(1,0)	(1,0)	(1,0)	(1,0)	(1,0)	
L1D -352>	(357,2)	(130,2)	(131,1)	(1,0)	(1,0)	(1,0)	(1,0)	(1,0)	(1,0)	(1,0)	(1,0)	(1,0)	(1,0)	(1,0)	(1,0)	(1,0)	
L1D -351>	(131,1)	(127,3)	(132,1)	(1,0)	(1,0)	(1,0)	(1,0)	(1,0)	(1,0)	(1,0)	(1,0)	(1,0)	(1,0)	(1,0)	(1,0)	(1,0)	
L1D -350>	(339,2)	(358,1)	(356,1)	(1,0)	(1,0)	(1,0)	(1,0)	(1,0)	(1,0)	(1,0)	(1,0)	(1,0)	(1,0)	(1,0)	(1,0)	(1,0)	
L1D -349>	(123,1)	(124,2)	(358,2)	(128,1)	(125,1)	(1,0)	(1,0)	(1,0)	(1,0)	(1,0)	(1,0)	(1,0)	(1,0)	(1,0)	(1,0)	(1,0)	
L1D -348>	(128,3)	(329,2)	(125,2)	(123,1)	(1,0)	(1,0)	(1,0)	(1,0)	(1,0)	(1,0)	(1,0)	(1,0)	(1,0)	(1,0)	(1,0)	(1,0)	
L1D -347>	(345,1)	(1,0)	(1,0)	(1,0)	(1,0)	(1,0)	(1,0)	(1,0)	(1,0)	(1,0)	(1,0)	(1,0)	(1,0)	(1,0)	(1,0)	(1,0)	
L1D -346>	(130,1)	(122,1)	(1,0)	(1,0)	(1,0)	(1,0)	(1,0)	(1,0)	(1,0)	(1,0)	(1,0)	(1,0)	(1,0)	(1,0)	(1,0)	(1,0)	
L1D -345>	(355,3)	(343,2)	(358,1)	(1,0)	(1,0)	(1,0)	(1,0)	(1,0)	(1,0)	(1,0)	(1,0)	(1,0)	(1,0)	(1,0)	(1,0)	(1,0)	
L1D -344>	(358,1)	(1,0)	(1,0)	(1,0)	(1,0)	(1,0)	(1,0)	(1,0)	(1,0)	(1,0)	(1,0)	(1,0)	(1,0)	(1,0)	(1,0)	(1,0)	
L1D -343>	(117,2)	(328,2)	(130,1)	(1,0)	(1,0)	(1,0)	(1,0)	(1,0)	(1,0)	(1,0)	(1,0)	(1,0)	(1,0)	(1,0)	(1,0)	(1,0)	
L1D -342>	(132,1)	(1,0)	(1,0)	(1,0)	(1,0)	(1,0)	(1,0)	(1,0)	(1,0)	(1,0)	(1,0)	(1,0)	(1,0)	(1,0)	(1,0)	(1,0)	
L1D -341>	(1,0)	(1,0)	(1,0)	(1,0)	(1,0)	(1,0)	(1,0)	(1,0)	(1,0)	(1,0)	(1,0)	(1,0)	(1,0)	(1,0)	(1,0)	(1,0)	
L1D -340>	(132,1)	(131,3)	(341,2)	(1,0)	(1,0)	(1,0)	(1,0)	(1,0)	(1,0)	(1,0)	(1,0)	(1,0)	(1,0)	(1,0)	(1,0)	(1,0)	
L1D -339>	(1,0)	(1,0)	(1,0)	(1,0)	(1,0)	(1,0)	(1,0)	(1,0)	(1,0)	(1,0)	(1,0)	(1,0)	(1,0)	(1,0)	(1,0)	(1,0)	
L1D -338>	(130,1)	(113,1)	(1,0)	(1,0)	(1,0)	(1,0)	(1,0)	(1,0)	(1,0)	(1,0)	(1,0)	(1,0)	(1,0)	(1,0)	(1,0)	(1,0)	
L1D -337>	(132,3)	(1,0)	(1,0)	(1,0)	(1,0)	(1,0)	(1,0)	(1,0)	(1,0)	(1,0)	(1,0)	(1,0)	(1,0)	(1,0)	(1,0)	(1,0)	
L1D -336>	(337,1)	(112,2)	(1,0)	(1,0)	(1,0)	(1,0)	(1,0)	(1,0)	(1,0)	(1,0)	(1,0)	(1,0)	(1,0)	(1,0)	(1,0)	(1,0)	
L1D -335>	(132,3)	(110,3)	(1,0)	(1,0)	(1,0)	(1,0)	(1,0)	(1,0)	(1,0)	(1,0)	(1,0)	(1,0)	(1,0)	(1,0)	(1,0)	(1,0)	
L1D -334>	(329,3)	(108,6)	(333,1)	(119,1)	(1,0)	(1,0)	(1,0)	(1,0)	(1,0)	(1,0)	(1,0)	(1,0)	(1,0)	(1,0)	(1,0)	(1,0)	
L1D -333>	(331,2)	(106,1)	(-1,5)	(334,1)	(104,3)	(1,0)	(1,0)	(1,0)	(1,0)	(1,0)	(1,0)	(1,0)	(1,0)	(1,0)	(1,0)	(1,0)	
L1D -332>	(105,2)	(106,3)	(132,1)	(1,0)	(1,0)	(1,0)	(1,0)	(1,0)	(1,0)	(1,0)	(1,0)	(1,0)	(1,0)	(1,0)	(1,0)	(1,0)	
L1D -331>	(334,1)	(107,2)	(106,1)	(1,0)	(1,0)	(1,0)	(1,0)	(1,0)	(1,0)	(1,0)	(1,0)	(1,0)	(1,0)	(1,0)	(1,0)	(1,0)	
L1D -330>	(333,1)	(331,1)	(1,0)	(1,0)	(1,0)	(1,0)	(1,0)	(1,0)	(1,0)	(1,0)	(1,0)	(1,0)	(1,0)	(1,0)	(1,0)	(1,0)	
L1D -329>	(334,1)	(107,1)	(1,0)	(1,0)	(1,0)	(1,0)	(1,0)	(1,0)	(1,0)	(1,0)	(1,0)	(1,0)	(1,0)	(1,0)	(1,0)	(1,0)	
L1D -328>	(1,0)	(1,0)	(1,0)	(1,0)	(1,0)	(1,0)	(1,0)	(1,0)	(1,0)	(1,0)	(1,0)	(1,0)	(1,0)	(1,0)	(1,0)	(1,0)	
L1D -327>	(1,0)	(1,0)	(1,0)	(1,0)	(1,0)	(1,0)	(1,0)	(1,0)	(1,0)	(1,0)	(1,0)	(1,0)	(1,0)	(1,0)	(1,0)	(1,0)	
L1D -326>	(1,0)	(1,0)	(1,0)	(1,0)	(1,0)	(1,0)	(1,0)	(1,0)	(1,0)	(1,0)	(1,0)	(1,0)	(1,0)	(1,0)	(1,0)	(1,0)	
L1D -325>	(1,0)	(1,0)	(1,0)	(1,0)	(1,0)	(1,0)	(1,0)	(1,0)	(1,0)	(1,0)	(1,0)	(1,0)	(1,0)	(1,0)	(1,0)	(1,0)	
L1D -324>	(1,0)	(1,0)	(1,0)	(1,0)	(1,0)	(1,0)	(1,0)	(1,0)	(1,0)	(1,0)	(1,0)	(1,0)	(1,0)	(1,0)	(1,0)	(1,0)	
L1D -323>	(1,0)	(1,0)	(1,0)	(1,0)	(1,0)	(1,0)	(1,0)	(1,0)	(1,0)	(1,0)	(1,0)	(1,0)	(1,0)	(1,0)	(1,0)	(1,0)	
L1D -322>	(1,0)	(1,0)	(1,0)	(1,0)	(1,0)	(1,0)	(1,0)	(1,0)	(1,0)	(1,0)	(1,0)	(1,0)	(1,0)	(1,0)	(1,0)	(1,0)	
L1D -321>	(1,0)	(1,0)	(1,0)	(1,0)	(1,0)	(1,0)	(1,0)	(1,0)	(1,0)	(1,0)	(1,0)	(1,0)	(1,0)	(1,0)	(1,0)	(1,0)	
L1D -320>	(-14,3)	(93,1)	(-13,3)	(94,22)	(1,0)	(1,0)	(1,0)	(1,0)	(1,0)	(1,0)	(1,0)	(1,0)	(1,0)	(1,0)	(1,0)	(1,0)	
L1D -319>	(1,0)	(1,0)	(1,0)	(1,0)	(1,0)	(1,0)	(1,0)	(1,0)	(1,0)	(1,0)	(1,0)	(1,0)	(1,0)	(1,0)	(1,0)	(1,0)	
L1D -318>	(56,1)	(1,0)	(1,0)	(1,0)	(1,0)	(1,0)	(1,0)	(1,0)	(1,0)	(1,0)	(1,0)	(1,0)	(1,0)	(1,0)	(1,0)	(1,0)	
L1D -317>	(55,2)	(1,0)	(1,0)	(1,0)	(1,0)	(1,0)	(1,0)	(1,0)	(1,0)	(1,0)	(1,0)	(1,0)	(1,0)	(1,0)	(1,0)	(1,0)	
L1D -316>	(54,1)	(292,2)	(296,1)	(1,0)	(1,0)	(1,0)	(1,0)	(1,0)	(1,0)	(1,0)	(1,0)	(1,0)	(1,0)	(1,0)	(1,0)	(1,0)	
L1D -315>	(297,1)	(304,2)	(52,2)	(314,1)	(1,0)	(1,0)	(1,0)	(1,0)	(1,0)	(1,0)	(1,0)	(1,0)	(1,0)	(1,0)	(1,0)	(1,0)	
L1D -314>	(53,2)	(51,1)	(311,2)	(308,2)	(50,1)	(56,1)	(306,1)	(54,1)	(1,0)	(1,0)	(1,0)	(1,0)	(1,0)	(1,0)	(1,0)	(1,0)	
L1D -313>	(51,2)	(314,27)	(300,1)	(1,0)	(1,0)	(1,0)	(1,0)	(1,0)	(1,0)	(1,0)	(1,0)	(1,0)	(1,0)	(1,0)	(1,0)	(1,0)	
L1D -312>	(301,2)	(56,3)	(1,0)	(1,0)	(1,0)	(1,0)	(1,0)	(1,0)	(1,0)	(1,0)	(1,0)	(1,0)	(1,0)	(1,0)	(1,0)	(1,0)	
L1D -311>	(52,3)	(305,2)	(1,0)	(1,0)	(1,0)	(1,0)	(1,0)	(1,0)	(1,0)	(1,0)	(1,0)	(1,0)	(1,0)	(1,0)	(1,0)	(1,0)	
L1D -310>	(297,3)	(315,1)	(1,0)	(1,0)	(1,0)	(1,0)	(1,0)	(1,0)	(1,0)	(1,0)	(1,0)	(1,0)	(1,0)	(1,0)	(1,0)	(1,0)	
L1D -309>	(308,3)	(314,2)	(318,1)	(297,1)	(1,0)	(1,0)	(1,0)	(1,0)	(1,0)	(1,0)	(1,0)	(1,0)	(1,0)	(1,0)	(1,0)	(1,0)	
L1D -308>	(309,3)	(1,0)	(1,0)	(1,0)	(1,0)	(1,0)	(1,0)	(1,0)	(1,0)	(1,0)	(1,0)	(1,0)	(1,0)	(1,0)	(1,0)	(1,0)	
L1D -307>	(296,2)	(308,2)	(1,0)	(1,0)	(1,0)	(1,0)	(1,0)	(1,0)	(1,0)	(1,0)	(1,0)	(1,0)	(1,0)	(1,0)	(1,0)	(1,0)	
L1D -306>	(318,1)	(312,1)	(1,0)	(1,0)	(1,0)	(1,0)	(1,0)	(1,0)	(1,0)	(1,0)	(1,0)	(1,0)	(1,0)	(1,0)	(1,0)	(1,0)	
L1D -305>	(318,4)	(292,2)	(1,0)	(1,0)	(1,0)	(1,0)	(1,0)	(1,0)	(1,0)	(1,0)	(1,0)	(1,0)	(1,0)	(1,0)	(1,0)	(1,0)	
L1D -304>	(317,1)	(1,0)	(1,0)	(1,0)	(1,0)	(1,0)	(1,0)	(1,0)	(1,0)	(1,0)	(1,0)	(1,0)	(1,0)	(1,0)	(1,0)	(1,0)	
L1D -303>	(317,3)	(318,2)	(54,1)	(41,2)	(1,0)	(1,0)	(1,0)	(1,0)	(1,0)	(1,0)	(1,0)	(1,0)	(1,0)	(1,0)	(1,0)	(1,0)	
L1D -302>	(55,1)	(318,2)	(1,0)	(1,0)	(1,0)	(1,0)	(1,0)	(1,0)	(1,0)	(1,0)	(1,0)	(1,0)	(1,0)	(1,0)	(1,0)	(1,0)	
L1D -301>	(40,1)	(315,1)	(42,1)	(1,0)	(1,0)	(1,0)	(1,0)	(1,0)	(1,0)	(1,0)	(1,0)	(1,0)	(1,0)	(1,0)	(1,0)	(1,0)	
L1D -300>	(45,2)	(1,0)	(1,0)	(1,0)	(1,0)	(1,0)	(1,0)	(1,0)	(1,0)	(1,0)	(1,0)	(1,0)	(1,0)	(1,0)	(1,0)	(1,0)	
L1D -299>	(38,1)	(318,1)	(1,0)	(1,0)	(1,0)	(1,0)	(1,0)	(1,0)	(1,0)	(1,0)	(1,0)	(1,0)	(1,0)	(1,0)	(1,0)	(1,0)	
L1D -298>	(1,0)	(1,0)	(1,0)	(1,0)	(1,0)	(1,0)	(1,0)	(1,0)	(1,0)	(1,0)	(1,0)	(1,0)	(1,0)	(1,0)	(1,0)	(1,0)	
L1D -297>	(36,3)	(1,0)	(1,0)	(1,0)	(1,0)	(1,0)	(1,0)	(1,0)	(1,0)	(1,0)	(1,0)	(1,0)	(1,0)	(1,0)	(1,0)	(1,0)	
L1D -296>	(288,2)	(32,3)	(313,1)	(292,3)	(290,1)	(291,1)	(-1,1)	(1,0)	(1,0)	(1,0)	(1,0)	(1,0)	(1,0)	(1,0)	(1,0)	(1,0)	
L1D -295>	(288,1)	(30,4)	(33,5)	(291,1)	(17,2)	(1,0)	(1,0)	(1,0)	(1,0)	(1,0)	(1,0)	(1,0)	(1,0)	(1,0)	(1,0)	(1,0)	
L1D -294>	(32,19)	(291,3)	(33,3)	(295,1)	(292,1)	(1,0)	(1,0)	(1,0)	(1,0)	(1,0)	(1,0)	(1,0)	(1,0)	(1,0)	(1,0)	(1,0)	
L1D -293>	(316,3)	(33,7)	(288,7)	(-1,2)	(289,1)	(28,2)	(1,0)	(1,0)	(1,0)	(1,0)	(1,0)	(1,0)	(1,0)	(1,0)	(1,0)	(1,0)	
L1D -292>	(32,2)	(289,1)	(293,3)	(27,2)	(296,1)	(30,1)	(1,0)	(1,0)	(1,0)	(1,0)	(1,0)	(1,0)	(1,0)	(1,0)	(1,0)	(1,0)	
L1D -291>	(318,4)	(31,2)	(1,0)	(1,0)	(1,0)	(1,0)	(1,0)	(1,0)	(1,0)	(1,0)	(1,0)	(1,0)	(1,0)	(1,0)	(1,0)	(1,0)	
L1D -290>	(1,0)	(1,0)	(1,0)	(1,0)	(1,0)	(1,0)	(1,0)	(1,0)	(1,0)	(1,0)	(1,0)	(1,0)	(1,0)	(1,0)	(1,0)	(1,0)	
L1D -289>	(1,0)	(1,0)	(1,0)	(1,0)	(1,0)	(1,0)	(1,0)	(1,0)	(1,0)	(1,0)	(1,0)	(1,0)	(1,0)	(1,0)	(1,0)	(1,0)	
L1D -288>	(1,0)	(1,0)	(1,0)	(1,0)	(1,0)	(1,0)	(1,0)	(1,0)	(1,0)	(1,0)	(1,0)	(1,0)	(1,0)	(1,0)	(1,0)	(1,0)	
L1D -287>	(1,0)	(1,0)	(1,0)	(1,0)	(1,0)	(1,0)	(1,0)	(1,0)	(1,0)	(1,0)	(1,0)	(1,0)	(1,0)	(1,0)	(1,0)	(1,0)	
L1D -286>	(287,1)	(1,0)	(1,0)	(1,0)	(1,0)	(1,0)	(1,0)	(1,0)	(1,0)	(1,0)	(1,0)	(1,0)	(1,0)	(1,0)	(1,0)	(1,0)	
L1D -285>	(284,3)	(1,0)	(1,0)	(1,0)	(1,0)	(1,0)	(1,0)	(1,0)	(1,0)	(1,0)	(1,0)	(1,0)	(1,0)	(1,0)	(1,0)	(1,0)	
L1D -284>	(263,2)	(22,3)	(1,0)	(1,0)	(1,0)	(1,0)	(1,0)	(1,0)	(1,0)	(1,0)	(1,0)	(1,0)	(1,0)	(1,0)	(1,0)	(1,0)	
L1D -283>	(21,1)	(1,0)	(1,0)	(1,0)	(1,0)	(1,0)	(1,0)	(1,0)	(1,0)	(1,0)	(1,0)	(1,0)	(1,0)	(1,0)	(1,0)	(1,0)	
L1D -282>	(263,3)	(20,1)	(1,0)	(1,0)	(1,0)	(1,0)	(1,0)	(1,0)	(1,0)	(1,0)	(1,0)	(1,0)	(1,0)	(1,0)	(1,0)	(1,0)	
L1D -281>	(20,1)	(19,2)	(1,0)	(1,0)	(1,0)	(1,0)	(1,0)	(1,0)	(1,0)	(1,0)	(1,0)	(1,0)	(1,0)	(1,0)	(1,0)	(1,0)	
L1D -280>	(18,1)	(1,0)	(1,0)	(1,0)	(1,0)	(1,0)	(1,0)	(1,0)	(1,0)	(1,0)	(1,0)	(1,0)	(1,0)	(1,0)	(1,0)	(1,0)	
L1D -279>	(16,3)	(263,2)	(278,2)	(17,1)	(1,0)	(1,0)	(1,0)	(1,0)	(1,0)	(1,0)	(1,0)	(1,0)	(1,0)	(1,0)	(1,0)	(1,0)	
L1D -278>	(239,1)	(-20,1)	(16,20)	(-18,3)	(264,3)	(243,2)	(18,1)	(-17,1)	(1,0)	(1,0)	(1,0)	(1,0)	(1,0)	(1,0)	(1,0)	(1,0)	
L1D -277>	(263,3)	(275,1)	(1,0)	(1,0)	(1,0)	(1,0)	(1,0)	(1,0)	(1,0)	(1,0)	(1,0)	(1,0)	(1,0)	(1,0)	(1,0)	(1,0)	
L1D -276>	(14,1)	(263,6)	(273,1)	(1,0)	(1,0)	(1,0)	(1,0)	(1,0)	(1,0)	(1,0)	(1,0)	(1,0)	(1,0)	(1,0)	(1,0)	(1,0)	
L1D -275>	(1,1)	(1,0)	(1,0)	(1,0)	(1,0)	(1,0)	(1,0)	(1,0)	(1,0)	(1,0)	(1,0)	(1,0)	(1,0)	(1,0)	(1,0)	(1,0)	
L1D -274>	(13,3)	(263,2)	(11,1)	(271,1)	(1,0)	(1,0)	(1,0)	(1,0)	(1,0)	(1,0)	(1,0)	(1,0)	(1,0)	(1,0)	(1,0)	(1,0)	
L1D -273>	(283,3)	(11,1)	(1,0)	(1,0)	(1,0)	(1,0)	(1,0)	(1,0)	(1,0)	(1,0)	(1,0)	(1,0)	(1,0)	(1,0)	(1,0)	(1,0)	
L1D -272>	(10,17)	(8,3)	(1,3)	(7,2)	(271,1)	(1,0)	(1,0)	(1,0)	(1,0)	(1,0)	(1,0)	(1,0)	(1,0)	(1,0)	(1,0)	(1,0)	
L1D -271>	(9,3)	(8,2)	(263,3)	(267,2)	(1,0)	(1,0)	(1,0)	(1,0)	(1,0)	(1,0)	(1,0)	(1,0)	(1,0)	(1,0)	(1,0)	(1,0)	
L1D -270>	(263,3)	(7,1)	(272,1)	(269,1)	(4,1)	(1,0)	(1,0)	(1,0)	(1,0)	(1,0)	(1,0)	(1,0)	(1,0)	(1,0)	(1,0)	(1,0)	
L1D -269>	(7,6)	(268,3)	(8,3)	(266,1)	(263,4)	(270,1)	(272,1)	(5,2)	(1,0)	(1,0)	(1,0)	(1,0)	(1,0)	(1,0)	(1,0)	(1,0)	
L1D -268>	(269,2)	(2,3)	(4,9)	(271,3)	(6,1)	(1,4)	(5,1)	(275,1)	(1,0)	(1,0)	(1,0)	(1,0)	(1,0)	(1,0)	(1,0)	(1,0)	
L1D -267>	(268,3)	(3,8)	(2,3)	(265,1)	(272,1)	(1,1)	(261,1)	(1,0)	(1,0)	(1,0)	(1,0)	(1,0)	(1,0)	(1,0)	(1,0)	(1,0)	
L1D -266>	(4,1)	(2,23)	(261,3)	(270,6)	(262,1)	(264,2)	(263,1)	(258,1)	(1,0)	(1,0)	(1,0)	(1,0)	(1,0)	(1,0)	(1,0)	(1,0)	
L1D -265>	(1,7)	(266,2)	(251,1)	(3,5)	(263,11)	(6,3)	(265,9)	(262,2)	(261,4)	(270,6)	(250,2)	(4,2)	(2,12)	(5,3)	(-47,2)	(264,1)	
L1D -264>	(255,5)	(265,3)	(2,4)	(245,9)	(261,4)	(-45,3)	(260,7)	(250,4)	(4,4)	(-2,1)	(246,3)	(249,1)	(259,3)	(263,3)	(262,8)	(253,7)	
L1D -263>	(264,3)	(-2,1)	(1,3)	(253,3)	(247,6)	(-52,4)	(249,3)	(254,3)	(-46,2)	(-1,18)	(261,20)	(242,1)	(252,3)	(-50,1)	(259,3)	(257,2)	
L1D -262>	(263,117)	(250,16)	(266,20)	(261,115)	(260,88)	(-31,1)	(252,14)	(253,10)	(1,51)	(2,121)	(264,114)	(-3,23)	(245,8)	(278,6)	(255,10)	(247,7)	
L1D -261>	(12,4)	(259,4)	(263,15)	(-33,1)	(9,3)	(-56,4)	(240,3)	(-3,10)	(266,3)	(270,2)	(4,4)	(269,7)	(253,9)	(264,5)	(242,2)	(260,4)	
L1D -260>	(-11,1)	(3,1)	(249,6)	(295,1)	(263,7)	(-1,4)	(-5,2)	(-56,1)	(274,3)	(277,1)	(252,3)	(-2,2)	(262,3)	(264,1)	(258,2)	(275,1)	
L1D -259>	(-2,5)	(-56,3)	(256,3)	(245,3)	(294,1)	(-5,3)	(257,1)	(263,10)	(255,6)	(-1,5)	(240,2)	(278,1)	(261,3)	(262,1)	(253,1)	(259,1)	
L1D -258>	(261,4)	(248,3)	(263,4)	(253,1)	(247,3)	(-2,1)	(298,2)	(262,2)	(-1,1)	(264,1)	(-4,1)	(243,1)	(1,0)	(1,0)	(1,0)	(1,0)	
L1D -257>	(261,3)	(242,2)	(259,2)	(250,1)	(1,0)	(1,0)	(1,0)	(1,0)	(1,0)	(1,0)	(1,0)	(1,0)	(1,0)	(1,0)	(1,0)	(1,0)	
L1D -256>	(-6,1)	(272,3)	(-3,5)	(-54,1)	(1,0)	(1,0)	(1,0)	(1,0)	(1,0)	(1,0)	(1,0)	(1,0)	(1,0)	(1,0)	(1,0)	(1,0)	
L1D -255>	(273,3)	(-45,2)	(260,3)	(-7,4)	(256,5)	(1,0)	(1,0)	(1,0)	(1,0)	(1,0)	(1,0)	(1,0)	(1,0)	(1,0)	(1,0)	(1,0)	
L1D -254>	(-44,3)	(255,1)	(1,0)	(1,0)	(1,0)	(1,0)	(1,0)	(1,0)	(1,0)	(1,0)	(1,0)	(1,0)	(1,0)	(1,0)	(1,0)	(1,0)	
L1D -253>	(261,3)	(260,1)	(-8,3)	(262,2)	(1,0)	(1,0)	(1,0)	(1,0)	(1,0)	(1,0)	(1,0)	(1,0)	(1,0)	(1,0)	(1,0)	(1,0)	
L1D -252>	(-15,1)	(256,3)	(260,2)	(-2,2)	(253,1)	(-10,1)	(1,0)	(1,0)	(1,0)	(1,0)	(1,0)	(1,0)	(1,0)	(1,0)	(1,0)	(1,0)	
L1D -251>	(277,1)	(-11,3)	(261,1)	(254,1)	(1,0)	(1,0)	(1,0)	(1,0)	(1,0)	(1,0)	(1,0)	(1,0)	(1,0)	(1,0)	(1,0)	(1,0)	
L1D -250>	(-1,3)	(-12,4)	(251,4)	(-11,1)	(1,0)	(1,0)	(1,0)	(1,0)	(1,0)	(1,0)	(1,0)	(1,0)	(1,0)	(1,0)	(1,0)	(1,0)	
L1D -249>	(-9,2)	(-12,2)	(261,3)	(1,0)	(1,0)	(1,0)	(1,0)	(1,0)	(1,0)	(1,0)	(1,0)	(1,0)	(1,0)	(1,0)	(1,0)	(1,0)	
L1D -248>	(259,3)	(-14,1)	(-1,4)	(1,0)	(1,0)	(1,0)	(1,0)	(1,0)	(1,0)	(1,0)	(1,0)	(1,0)	(1,0)	(1,0)	(1,0)	(1,0)	
L1D -247>	(261,2)	(-15,1)	(250,1)	(1,0)	(1,0)	(1,0)	(1,0)	(1,0)	(1,0)	(1,0)	(1,0)	(1,0)	(1,0)	(1,0)	(1,0)	(1,0)	
L1D -246>	(-15,2)	(-13,2)	(-16,1)	(1,0)	(1,0)	(1,0)	(1,0)	(1,0)	(1,0)	(1,0)	(1,0)	(1,0)	(1,0)	(1,0)	(1,0)	(1,0)	
L1D -245>	(261,3)	(1,0)	(1,0)	(1,0)	(1,0)	(1,0)	(1,0)	(1,0)	(1,0)	(1,0)	(1,0)	(1,0)	(1,0)	(1,0)	(1,0)	(1,0)	
L1D -244>	(261,2)	(1,0)	(1,0)	(1,0)	(1,0)	(1,0)	(1,0)	(1,0)	(1,0)	(1,0)	(1,0)	(1,0)	(1,0)	(1,0)	(1,0)	(1,0)	
L1D -243>	(261,3)	(-19,2)	(1,0)	(1,0)	(1,0)	(1,0)	(1,0)	(1,0)	(1,0)	(1,0)	(1,0)	(1,0)	(1,0)	(1,0)	(1,0)	(1,0)	
L1D -242>	(-19,4)	(260,3)	(227,2)	(1,0)	(1,0)	(1,0)	(1,0)	(1,0)	(1,0)	(1,0)	(1,0)	(1,0)	(1,0)	(1,0)	(1,0)	(1,0)	
L1D -241>	(-19,3)	(-1,2)	(261,1)	(227,2)	(1,0)	(1,0)	(1,0)	(1,0)	(1,0)	(1,0)	(1,0)	(1,0)	(1,0)	(1,0)	(1,0)	(1,0)	
L1D -240>	(227,2)	(13,1)	(1,0)	(1,0)	(1,0)	(1,0)	(1,0)	(1,0)	(1,0)	(1,0)	(1,0)	(1,0)	(1,0)	(1,0)	(1,0)	(1,0)	
L1D -239>	(-23,1)	(1,0)	(1,0)	(1,0)	(1,0)	(1,0)	(1,0)	(1,0)	(1,0)	(1,0)	(1,0)	(1,0)	(1,0)	(1,0)	(1,0)	(1,0)	
L1D -238>	(12,1)	(1,0)	(1,0)	(1,0)	(1,0)	(1,0)	(1,0)	(1,0)	(1,0)	(1,0)	(1,0)	(1,0)	(1,0)	(1,0)	(1,0)	(1,0)	
L1D -237>	(10,1)	(1,0)	(1,0)	(1,0)	(1,0)	(1,0)	(1,0)	(1,0)	(1,0)	(1,0)	(1,0)	(1,0)	(1,0)	(1,0)	(1,0)	(1,0)	
L1D -236>	(1,0)	(1,0)	(1,0)	(1,0)	(1,0)	(1,0)	(1,0)	(1,0)	(1,0)	(1,0)	(1,0)	(1,0)	(1,0)	(1,0)	(1,0)	(1,0)	
L1D -235>	(227,4)	(9,2)	(-118,1)	(1,0)	(1,0)	(1,0)	(1,0)	(1,0)	(1,0)	(1,0)	(1,0)	(1,0)	(1,0)	(1,0)	(1,0)	(1,0)	
L1D -234>	(227,1)	(1,0)	(1,0)	(1,0)	(1,0)	(1,0)	(1,0)	(1,0)	(1,0)	(1,0)	(1,0)	(1,0)	(1,0)	(1,0)	(1,0)	(1,0)	
L1D -233>	(6,2)	(7,1)	(1,0)	(1,0)	(1,0)	(1,0)	(1,0)	(1,0)	(1,0)	(1,0)	(1,0)	(1,0)	(1,0)	(1,0)	(1,0)	(1,0)	
L1D -232>	(6,1)	(2,1)	(4,2)	(1,0)	(1,0)	(1,0)	(1,0)	(1,0)	(1,0)	(1,0)	(1,0)	(1,0)	(1,0)	(1,0)	(1,0)	(1,0)	
L1D -231>	(-1,1)	(-15,1)	(5,1)	(227,1)	(237,1)	(2,1)	(1,0)	(1,0)	(1,0)	(1,0)	(1,0)	(1,0)	(1,0)	(1,0)	(1,0)	(1,0)	
L1D -230>	(224,2)	(211,1)	(-128,4)	(4,1)	(229,1)	(-127,1)	(1,0)	(1,0)	(1,0)	(1,0)	(1,0)	(1,0)	(1,0)	(1,0)	(1,0)	(1,0)	
L1D -229>	(227,1)	(228,4)	(224,4)	(230,3)	(223,2)	(222,2)	(229,1)	(226,3)	(-127,1)	(216,1)	(1,0)	(1,0)	(1,0)	(1,0)	(1,0)	(1,0)	
L1D -228>	(223,1)	(-105,2)	(212,2)	(-125,2)	(225,5)	(-129,7)	(216,2)	(214,3)	(224,6)	(5,2)	(227,3)	(221,2)	(-130,1)	(2,3)	(228,2)	(220,1)	
L1D -227>	(226,6)	(218,1)	(211,1)	(-6,1)	(212,4)	(233,2)	(222,1)	(230,7)	(225,7)	(213,4)	(224,10)	(214,6)	(11,3)	(3,4)	(-1,4)	(-131,10)	
L1D -226>	(230,48)	(227,118)	(218,15)	(226,14)	(221,12)	(10,9)	(8,11)	(223,17)	(16,17)	(-109,1)	(225,58)	(-1,32)	(217,10)	(229,56)	(234,22)	(228,61)	
L1D -225>	(2,10)	(228,3)	(211,1)	(209,3)	(227,15)	(-127,4)	(-104,1)	(13,1)	(-123,1)	(1,7)	(-109,1)	(12,1)	(-122,2)	(5,1)	(-112,1)	(213,2)	
L1D -224>	(232,6)	(2,1)	(227,9)	(213,5)	(-120,1)	(216,2)	(224,2)	(-126,2)	(226,1)	(228,8)	(14,1)	(19,3)	(-114,3)	(11,2)	(-117,3)	(-125,2)	
L1D -223>	(210,1)	(-1,16)	(-108,2)	(225,3)	(214,4)	(226,4)	(224,2)	(220,1)	(-3,2)	(219,1)	(-8,2)	(5,1)	(1,0)	(1,0)	(1,0)	(1,0)	
L1D -222>	(130,25)	(128,18)	(221,12)	(127,7)	(219,2)	(-107,9)	(129,38)	(126,2)	(220,1)	(4,3)	(-1,4)	(212,4)	(216,5)	(214,3)	(206,4)	(218,5)	
L1D -221>	(129,42)	(128,6)	(127,4)	(220,11)	(-5,5)	(125,4)	(197,1)	(112,1)	(-2,5)	(223,1)	(-1,3)	(221,4)	(109,1)	(-132,3)	(208,3)	(126,2)	
L1D -220>	(128,23)	(125,1)	(1,8)	(126,8)	(225,1)	(123,1)	(129,13)	(124,1)	(115,3)	(-1,7)	(-122,3)	(234,4)	(218,2)	(-6,1)	(119,2)	(130,2)	
L1D -219>	(127,11)	(126,1)	(125,13)	(223,3)	(209,1)	(-2,6)	(208,5)	(129,2)	(-122,1)	(-1,2)	(206,5)	(11,1)	(10,2)	(-132,3)	(217,1)	(222,2)	
L1D -218>	(124,4)	(126,2)	(207,3)	(222,2)	(216,1)	(123,1)	(220,1)	(225,2)	(209,4)	(129,3)	(219,2)	(120,1)	(215,2)	(210,1)	(-1,1)	(221,3)	
L1D -217>	(116,1)	(125,1)	(213,3)	(206,5)	(-119,1)	(123,9)	(128,1)	(210,2)	(-1,1)	(-9,4)	(225,3)	(208,1)	(215,1)	(221,2)	(114,1)	(127,1)	
L1D -216>	(124,1)	(222,2)	(217,1)	(225,3)	(219,1)	(130,3)	(127,7)	(125,1)	(207,1)	(221,4)	(-1,2)	(128,1)	(-2,1)	(-10,1)	(1,0)	(1,0)	
L1D -215>	(-1,2)	(2,14)	(222,6)	(-11,4)	(-132,1)	(201,3)	(212,1)	(210,2)	(127,2)	(-10,1)	(-9,1)	(-2,1)	(1,0)	(1,0)	(1,0)	(1,0)	
L1D -214>	(-1,2)	(219,1)	(-12,2)	(2,7)	(217,2)	(203,3)	(129,3)	(221,12)	(113,2)	(125,2)	(-4,2)	(216,2)	(128,1)	(124,1)	(122,1)	(224,1)	
L1D -213>	(-2,2)	(124,1)	(220,1)	(-5,1)	(215,4)	(-1,2)	(205,3)	(122,3)	(123,2)	(-4,2)	(222,2)	(1,0)	(1,0)	(1,0)	(1,0)	(1,0)	
L1D -212>	(213,1)	(218,1)	(220,2)	(199,7)	(222,5)	(117,6)	(125,1)	(-5,2)	(-13,2)	(122,1)	(118,2)	(214,2)	(193,2)	(-1,1)	(115,1)	(1,0)	
L1D -211>	(220,3)	(116,13)	(208,1)	(119,2)	(117,4)	(218,3)	(210,5)	(-15,1)	(197,1)	(222,2)	(200,1)	(1,0)	(1,0)	(1,0)	(1,0)	(1,0)	
L1D -210>	(129,3)	(116,11)	(122,1)	(211,4)	(-14,3)	(115,5)	(-16,5)	(-130,3)	(203,1)	(225,1)	(220,1)	(-15,1)	(213,1)	(119,3)	(52,1)	(-3,1)	
L1D -209>	(117,4)	(208,1)	(50,1)	(52,117)	(193,3)	(-17,7)	(115,12)	(113,5)	(-1,8)	(222,2)	(224,2)	(206,1)	(210,4)	(225,2)	(-4,2)	(196,1)	
L1D -208>	(114,2)	(207,3)	(116,1)	(-1,3)	(115,1)	(222,9)	(205,1)	(112,2)	(210,1)	(221,3)	(111,2)	(-3,2)	(-17,3)	(211,1)	(113,1)	(1,0)	
L1D -207>	(113,8)	(52,42)	(-1,2)	(222,5)	(-2,3)	(208,2)	(115,2)	(109,1)	(-18,1)	(1,0)	(1,0)	(1,0)	(1,0)	(1,0)	(1,0)	(1,0)	
L1D -206>	(202,1)	(222,3)	(113,3)	(-1,3)	(204,2)	(112,4)	(-20,2)	(207,3)	(115,2)	(111,4)	(205,1)	(210,1)	(203,1)	(114,2)	(1,0)	(1,0)	
L1D -205>	(52,1)	(111,13)	(205,9)	(-21,2)	(-1,1)	(-19,3)	(110,2)	(202,1)	(113,1)	(114,1)	(115,2)	(108,1)	(1,0)	(1,0)	(1,0)	(1,0)	
L1D -204>	(110,27)	(112,1)	(205,4)	(202,10)	(109,18)	(207,1)	(130,2)	(222,5)	(-1,4)	(-21,2)	(203,1)	(-22,1)	(-20,1)	(1,0)	(1,0)	(1,0)	
L1D -203>	(52,1)	(-23,1)	(128,1)	(204,3)	(199,13)	(222,6)	(110,1)	(109,4)	(205,1)	(112,1)	(1,0)	(1,0)	(1,0)	(1,0)	(1,0)	(1,0)	
L1D -202>	(108,27)	(203,1)	(111,1)	(119,2)	(130,2)	(-23,2)	(1,0)	(1,0)	(1,0)	(1,0)	(1,0)	(1,0)	(1,0)	(1,0)	(1,0)	(1,0)	
L1D -201>	(107,1)	(199,28)	(222,4)	(203,2)	(-1,5)	(206,3)	(209,2)	(110,1)	(1,0)	(1,0)	(1,0)	(1,0)	(1,0)	(1,0)	(1,0)	(1,0)	
L1D -200>	(-26,3)	(199,42)	(107,14)	(222,4)	(117,1)	(-1,5)	(198,1)	(201,1)	(106,1)	(1,0)	(1,0)	(1,0)	(1,0)	(1,0)	(1,0)	(1,0)	
L1D -199>	(199,16)	(195,2)	(107,8)	(222,3)	(-2,6)	(110,1)	(-1,1)	(1,0)	(1,0)	(1,0)	(1,0)	(1,0)	(1,0)	(1,0)	(1,0)	(1,0)	
L1D -198>	(9,3)	(199,2)	(128,2)	(106,10)	(1,0)	(1,0)	(1,0)	(1,0)	(1,0)	(1,0)	(1,0)	(1,0)	(1,0)	(1,0)	(1,0)	(1,0)	
L1D -197>	(52,3)	(197,1)	(105,9)	(1,14)	(-1,1)	(222,5)	(195,1)	(1,0)	(1,0)	(1,0)	(1,0)	(1,0)	(1,0)	(1,0)	(1,0)	(1,0)	
L1D -196>	(197,3)	(1,0)	(1,0)	(1,0)	(1,0)	(1,0)	(1,0)	(1,0)	(1,0)	(1,0)	(1,0)	(1,0)	(1,0)	(1,0)	(1,0)	(1,0)	
L1D -195>	(52,1)	(196,1)	(1,2)	(103,13)	(38,14)	(-1,1)	(1,0)	(1,0)	(1,0)	(1,0)	(1,0)	(1,0)	(1,0)	(1,0)	(1,0)	(1,0)	
L1D -194>	(-2,2)	(100,97)	(2,1)	(-32,13)	(44,2)	(102,4)	(1,1)	(-15,1)	(1,0)	(1,0)	(1,0)	(1,0)	(1,0)	(1,0)	(1,0)	(1,0)	
L1D -193>	(1,0)	(1,0)	(1,0)	(1,0)	(1,0)	(1,0)	(1,0)	(1,0)	(1,0)	(1,0)	(1,0)	(1,0)	(1,0)	(1,0)	(1,0)	(1,0)	
L1D -192>	(1,1)	(1,0)	(1,0)	(1,0)	(1,0)	(1,0)	(1,0)	(1,0)	(1,0)	(1,0)	(1,0)	(1,0)	(1,0)	(1,0)	(1,0)	(1,0)	
L1D -191>	(195,3)	(2,14)	(34,14)	(1,0)	(1,0)	(1,0)	(1,0)	(1,0)	(1,0)	(1,0)	(1,0)	(1,0)	(1,0)	(1,0)	(1,0)	(1,0)	
L1D -190>	(2,42)	(1,0)	(1,0)	(1,0)	(1,0)	(1,0)	(1,0)	(1,0)	(1,0)	(1,0)	(1,0)	(1,0)	(1,0)	(1,0)	(1,0)	(1,0)	
L1D -189>	(1,3)	(194,1)	(1,0)	(1,0)	(1,0)	(1,0)	(1,0)	(1,0)	(1,0)	(1,0)	(1,0)	(1,0)	(1,0)	(1,0)	(1,0)	(1,0)	
L1D -188>	(1,17)	(1,0)	(1,0)	(1,0)	(1,0)	(1,0)	(1,0)	(1,0)	(1,0)	(1,0)	(1,0)	(1,0)	(1,0)	(1,0)	(1,0)	(1,0)	
L1D -187>	(1,1)	(1,0)	(1,0)	(1,0)	(1,0)	(1,0)	(1,0)	(1,0)	(1,0)	(1,0)	(1,0)	(1,0)	(1,0)	(1,0)	(1,0)	(1,0)	
L1D -186>	(93,2)	(188,3)	(-10,1)	(94,83)	(95,1)	(-35,2)	(1,0)	(1,0)	(1,0)	(1,0)	(1,0)	(1,0)	(1,0)	(1,0)	(1,0)	(1,0)	
L1D -185>	(28,14)	(1,0)	(1,0)	(1,0)	(1,0)	(1,0)	(1,0)	(1,0)	(1,0)	(1,0)	(1,0)	(1,0)	(1,0)	(1,0)	(1,0)	(1,0)	
L1D -184>	(183,4)	(43,1)	(44,69)	(184,13)	(1,0)	(1,0)	(1,0)	(1,0)	(1,0)	(1,0)	(1,0)	(1,0)	(1,0)	(1,0)	(1,0)	(1,0)	
L1D -183>	(38,1)	(43,1)	(1,0)	(1,0)	(1,0)	(1,0)	(1,0)	(1,0)	(1,0)	(1,0)	(1,0)	(1,0)	(1,0)	(1,0)	(1,0)	(1,0)	
L1D -182>	(1,3)	(4,19)	(1,0)	(1,0)	(1,0)	(1,0)	(1,0)	(1,0)	(1,0)	(1,0)	(1,0)	(1,0)	(1,0)	(1,0)	(1,0)	(1,0)	
L1D -181>	(1,2)	(180,4)	(3,1)	(1,0)	(1,0)	(1,0)	(1,0)	(1,0)	(1,0)	(1,0)	(1,0)	(1,0)	(1,0)	(1,0)	(1,0)	(1,0)	
L1D -180>	(1,2)	(52,1)	(180,30)	(2,21)	(179,13)	(6,3)	(1,0)	(1,0)	(1,0)	(1,0)	(1,0)	(1,0)	(1,0)	(1,0)	(1,0)	(1,0)	
L1D -179>	(180,53)	(6,2)	(178,3)	(1,0)	(1,0)	(1,0)	(1,0)	(1,0)	(1,0)	(1,0)	(1,0)	(1,0)	(1,0)	(1,0)	(1,0)	(1,0)	
L1D -178>	(1,0)	(1,0)	(1,0)	(1,0)	(1,0)	(1,0)	(1,0)	(1,0)	(1,0)	(1,0)	(1,0)	(1,0)	(1,0)	(1,0)	(1,0)	(1,0)	
L1D -177>	(1,0)	(1,0)	(1,0)	(1,0)	(1,0)	(1,0)	(1,0)	(1,0)	(1,0)	(1,0)	(1,0)	(1,0)	(1,0)	(1,0)	(1,0)	(1,0)	
L1D -176>	(3,11)	(1,0)	(1,0)	(1,0)	(1,0)	(1,0)	(1,0)	(1,0)	(1,0)	(1,0)	(1,0)	(1,0)	(1,0)	(1,0)	(1,0)	(1,0)	
L1D -175>	(2,4)	(1,0)	(1,0)	(1,0)	(1,0)	(1,0)	(1,0)	(1,0)	(1,0)	(1,0)	(1,0)	(1,0)	(1,0)	(1,0)	(1,0)	(1,0)	
L1D -174>	(4,1)	(6,3)	(1,0)	(1,0)	(1,0)	(1,0)	(1,0)	(1,0)	(1,0)	(1,0)	(1,0)	(1,0)	(1,0)	(1,0)	(1,0)	(1,0)	
L1D -173>	(1,3)	(177,1)	(2,1)	(175,1)	(1,0)	(1,0)	(1,0)	(1,0)	(1,0)	(1,0)	(1,0)	(1,0)	(1,0)	(1,0)	(1,0)	(1,0)	
L1D -172>	(-23,2)	(173,1)	(1,2)	(1,0)	(1,0)	(1,0)	(1,0)	(1,0)	(1,0)	(1,0)	(1,0)	(1,0)	(1,0)	(1,0)	(1,0)	(1,0)	
L1D -171>	(1,54)	(8,1)	(1,0)	(1,0)	(1,0)	(1,0)	(1,0)	(1,0)	(1,0)	(1,0)	(1,0)	(1,0)	(1,0)	(1,0)	(1,0)	(1,0)	
L1D -170>	(172,1)	(6,2)	(1,0)	(1,0)	(1,0)	(1,0)	(1,0)	(1,0)	(1,0)	(1,0)	(1,0)	(1,0)	(1,0)	(1,0)	(1,0)	(1,0)	
L1D -169>	(170,1)	(1,2)	(2,2)	(175,1)	(1,0)	(1,0)	(1,0)	(1,0)	(1,0)	(1,0)	(1,0)	(1,0)	(1,0)	(1,0)	(1,0)	(1,0)	
L1D -168>	(94,2)	(167,60)	(170,1)	(-1,2)	(6,3)	(1,0)	(1,0)	(1,0)	(1,0)	(1,0)	(1,0)	(1,0)	(1,0)	(1,0)	(1,0)	(1,0)	
L1D -167>	(1,15)	(171,1)	(168,1)	(166,12)	(30,1)	(1,0)	(1,0)	(1,0)	(1,0)	(1,0)	(1,0)	(1,0)	(1,0)	(1,0)	(1,0)	(1,0)	
L1D -166>	(1,1)	(1,0)	(1,0)	(1,0)	(1,0)	(1,0)	(1,0)	(1,0)	(1,0)	(1,0)	(1,0)	(1,0)	(1,0)	(1,0)	(1,0)	(1,0)	
L1D -165>	(1,1)	(2,89)	(133,0)	(171,1)	(1,0)	(1,0)	(1,0)	(1,0)	(1,0)	(1,0)	(1,0)	(1,0)	(1,0)	(1,0)	(1,0)	(1,0)	
L1D -164>	(133,1)	(-1,3)	(165,1)	(163,13)	(132,5)	(1,0)	(1,0)	(1,0)	(1,0)	(1,0)	(1,0)	(1,0)	(1,0)	(1,0)	(1,0)	(1,0)	
L1D -163>	(162,71)	(164,2)	(1,2)	(30,4)	(165,1)	(-1,2)	(1,0)	(1,0)	(1,0)	(1,0)	(1,0)	(1,0)	(1,0)	(1,0)	(1,0)	(1,0)	
L1D -162>	(172,3)	(164,1)	(1,15)	(132,1)	(-1,2)	(1,0)	(1,0)	(1,0)	(1,0)	(1,0)	(1,0)	(1,0)	(1,0)	(1,0)	(1,0)	(1,0)	
L1D -161>	(164,2)	(162,1)	(30,5)	(172,53)	(8,2)	(133,1)	(28,1)	(1,0)	(1,0)	(1,0)	(1,0)	(1,0)	(1,0)	(1,0)	(1,0)	(1,0)	
L1D -160>	(161,1)	(133,36)	(39,5)	(-1,1)	(1,0)	(1,0)	(1,0)	(1,0)	(1,0)	(1,0)	(1,0)	(1,0)	(1,0)	(1,0)	(1,0)	(1,0)	
L1D -159>	(84,1)	(165,1)	(172,14)	(26,14)	(38,3)	(132,3)	(-1,1)	(1,0)	(1,0)	(1,0)	(1,0)	(1,0)	(1,0)	(1,0)	(1,0)	(1,0)	
L1D -158>	(-10,5)	(84,1)	(159,3)	(-1,4)	(1,0)	(1,0)	(1,0)	(1,0)	(1,0)	(1,0)	(1,0)	(1,0)	(1,0)	(1,0)	(1,0)	(1,0)	
L1D -157>	(-1,1)	(-2,1)	(-10,5)	(164,1)	(1,0)	(1,0)	(1,0)	(1,0)	(1,0)	(1,0)	(1,0)	(1,0)	(1,0)	(1,0)	(1,0)	(1,0)	
L1D -156>	(157,1)	(-1,1)	(1,0)	(1,0)	(1,0)	(1,0)	(1,0)	(1,0)	(1,0)	(1,0)	(1,0)	(1,0)	(1,0)	(1,0)	(1,0)	(1,0)	
L1D -155>	(2,2)	(1,2)	(1,0)	(1,0)	(1,0)	(1,0)	(1,0)	(1,0)	(1,0)	(1,0)	(1,0)	(1,0)	(1,0)	(1,0)	(1,0)	(1,0)	
L1D -154>	(155,1)	(1,0)	(1,0)	(1,0)	(1,0)	(1,0)	(1,0)	(1,0)	(1,0)	(1,0)	(1,0)	(1,0)	(1,0)	(1,0)	(1,0)	(1,0)	
L1D -153>	(154,3)	(157,3)	(1,0)	(1,0)	(1,0)	(1,0)	(1,0)	(1,0)	(1,0)	(1,0)	(1,0)	(1,0)	(1,0)	(1,0)	(1,0)	(1,0)	
L1D -152>	(-37,1)	(1,0)	(1,0)	(1,0)	(1,0)	(1,0)	(1,0)	(1,0)	(1,0)	(1,0)	(1,0)	(1,0)	(1,0)	(1,0)	(1,0)	(1,0)	
L1D -151>	(1,0)	(1,0)	(1,0)	(1,0)	(1,0)	(1,0)	(1,0)	(1,0)	(1,0)	(1,0)	(1,0)	(1,0)	(1,0)	(1,0)	(1,0)	(1,0)	
L1D -150>	(-44,0)	(149,74)	(1,0)	(1,0)	(1,0)	(1,0)	(1,0)	(1,0)	(1,0)	(1,0)	(1,0)	(1,0)	(1,0)	(1,0)	(1,0)	(1,0)	
L1D -149>	(-41,1)	(1,0)	(1,0)	(1,0)	(1,0)	(1,0)	(1,0)	(1,0)	(1,0)	(1,0)	(1,0)	(1,0)	(1,0)	(1,0)	(1,0)	(1,0)	
L1D -148>	(4,1)	(1,0)	(1,0)	(1,0)	(1,0)	(1,0)	(1,0)	(1,0)	(1,0)	(1,0)	(1,0)	(1,0)	(1,0)	(1,0)	(1,0)	(1,0)	
L1D -147>	(148,1)	(149,1)	(1,28)	(-47,11)	(1,0)	(1,0)	(1,0)	(1,0)	(1,0)	(1,0)	(1,0)	(1,0)	(1,0)	(1,0)	(1,0)	(1,0)	
L1D -146>	(90,40)	(128,3)	(86,1)	(138,2)	(89,15)	(88,2)	(-1,3)	(144,2)	(145,3)	(83,2)	(140,1)	(142,1)	(1,0)	(1,0)	(1,0)	(1,0)	
L1D -145>	(89,35)	(1,1)	(88,13)	(145,4)	(-1,5)	(128,1)	(144,4)	(59,1)	(141,1)	(132,1)	(86,1)	(138,1)	(1,0)	(1,0)	(1,0)	(1,0)	
L1D -144>	(88,20)	(143,96)	(139,1)	(137,1)	(142,3)	(125,0)	(145,0)	(141,6)	(135,0)	(89,9)	(140,5)	(138,3)	(87,0)	(90,6)	(-1,2)	(146,2)	
L1D -143>	(87,28)	(142,3)	(129,1)	(147,1)	(-1,5)	(86,7)	(88,10)	(89,6)	(144,1)	(85,2)	(136,2)	(84,4)	(139,3)	(128,1)	(120,2)	(134,1)	
L1D -142>	(86,8)	(60,2)	(-1,2)	(1,2)	(141,2)	(140,2)	(39,9)	(-2,1)	(142,2)	(137,1)	(87,1)	(84,1)	(1,0)	(1,0)	(1,0)	(1,0)	
L1D -141>	(137,4)	(1,1)	(142,1)	(85,3)	(87,3)	(2,6)	(133,1)	(143,1)	(84,1)	(130,3)	(-3,7)	(132,14)	(38,4)	(146,1)	(1,0)	(1,0)	
L1D -140>	(84,4)	(140,5)	(173,2)	(126,1)	(172,1)	(139,3)	(138,1)	(0,2)	(24,14)	(6,4)	(-4,5)	(130,3)	(87,3)	(85,2)	(83,3)	(123,2)	
L1D -139>	(54,2)	(137,1)	(-2,1)	(143,1)	(84,1)	(1,8)	(135,1)	(146,3)	(87,1)	(86,3)	(125,2)	(95,1)	(-5,2)	(138,1)	(119,1)	(1,0)	
L1D -138>	(-6,1)	(137,1)	(96,1)	(1,1)	(-1,4)	(-4,1)	(131,1)	(146,4)	(52,2)	(95,1)	(172,2)	(139,2)	(123,1)	(125,1)	(87,1)	(127,1)	
L1D -137>	(135,9)	(136,4)	(142,1)	(138,1)	(-10,1)	(1,4)	(172,26)	(-6,2)	(146,3)	(95,2)	(85,2)	(128,1)	(125,2)	(94,2)	(-4,1)	(-43,1)	
L1D -136>	(1,104)	(93,1)	(145,1)	(142,0)	(76,0)	(77,0)	(82,0)	(91,0)	(88,0)	(-7,0)	(74,0)	(85,0)	(135,0)	(1,0)	(1,0)	(1,0)	
L1D -135>	(138,24)	(122,12)	(1,30)	(136,5)	(49,1)	(137,2)	(92,2)	(134,11)	(-10,1)	(79,2)	(42,1)	(172,14)	(50,3)	(132,1)	(-1,1)	(91,7)	
L1D -134>	(49,30)	(-10,20)	(133,17)	(46,17)	(130,1)	(122,2)	(40,8)	(48,80)	(132,10)	(50,92)	(47,44)	(41,4)	(34,7)	(-1,17)	(131,12)	(38,7)	
L1D -133>	(40,1)	(48,113)	(47,122)	(-1,49)	(49,71)	(1,72)	(134,17)	(121,8)	(135,12)	(183,3)	(35,6)	(27,4)	(44,12)	(132,56)	(37,7)	(50,92)	
L1D -132>	(47,110)	(43,41)	(121,1)	(49,36)	(-1,106)	(134,2)	(120,3)	(45,53)	(44,79)	(133,14)	(38,8)	(131,9)	(35,4)	(130,28)	(132,4)	(46,57)	
L1D -131>	(123,1)	(49,12)	(-1,3)	(46,16)	(35,2)	(41,1)	(1,74)	(132,3)	(40,1)	(48,3)	(42,4)	(50,0)	(45,10)	(44,2)	(47,7)	(129,0)	
L1D -130>	(48,29)	(131,12)	(45,76)	(32,1)	(39,24)	(41,10)	(222,29)	(1,5)	(221,14)	(40,8)	(47,20)	(49,84)	(129,18)	(50,17)	(-1,19)	(34,5)	
L1D -129>	(37,14)	(49,9)	(54,5)	(44,38)	(50,34)	(43,8)	(38,31)	(47,18)	(48,20)	(128,1)	(222,13)	(40,12)	(46,25)	(45,10)	(220,12)	(219,7)	
L1D -128>	(46,38)	(44,11)	(130,7)	(219,20)	(-1,14)	(29,66)	(1,10)	(45,9)	(221,10)	(50,37)	(38,8)	(49,32)	(43,9)	(48,19)	(131,9)	(218,1)	
L1D -127>	(2,12)	(85,4)	(44,47)	(1,3)	(-1,9)	(42,11)	(47,32)	(34,7)	(49,7)	(50,42)	(131,11)	(130,21)	(126,6)	(48,1)	(43,6)	(36,15)	
L1D -126>	(123,49)	(48,18)	(31,12)	(42,14)	(131,9)	(43,25)	(125,41)	(221,13)	(50,70)	(47,36)	(128,10)	(127,7)	(49,21)	(124,1)	(41,11)	(132,12)	
L1D -125>	(34,2)	(39,3)	(213,1)	(41,3)	(40,8)	(29,11)	(52,26)	(42,16)	(43,5)	(1,3)	(2,80)	(46,11)	(47,3)	(128,2)	(131,1)	(50,23)	
L1D -124>	(45,1)	(42,40)	(32,9)	(48,32)	(50,59)	(46,26)	(41,15)	(125,4)	(39,27)	(128,7)	(356,4)	(133,4)	(47,13)	(25,16)	(43,5)	(357,4)	
L1D -123>	(40,30)	(25,13)	(49,4)	(41,108)	(131,10)	(37,1)	(48,64)	(130,5)	(38,22)	(50,64)	(46,17)	(67,5)	(125,15)	(127,3)	(124,3)	(1,21)	
L1D -122>	(123,7)	(146,1)	(39,22)	(40,58)	(219,8)	(50,49)	(49,4)	(121,10)	(335,5)	(47,5)	(66,10)	(48,24)	(213,2)	(94,4)	(23,27)	(131,6)	
L1D -121>	(1,71)	(19,0)	(49,1)	(128,0)	(64,0)	(21,1)	(38,2)	(39,0)	(36,2)	(46,1)	(123,1)	(127,0)	(50,2)	(48,1)	(131,0)	(65,0)	
L1D -120>	(91,4)	(19,7)	(48,5)	(37,41)	(49,42)	(120,7)	(122,7)	(54,3)	(131,7)	(38,9)	(35,17)	(50,59)	(4,1)	(219,4)	(121,4)	(47,9)	
L1D -119>	(36,30)	(50,31)	(48,23)	(34,19)	(20,22)	(47,16)	(19,6)	(43,8)	(219,3)	(220,7)	(213,5)	(122,4)	(120,3)	(118,3)	(21,4)	(49,1)	
L1D -118>	(35,21)	(125,6)	(19,91)	(50,39)	(75,3)	(47,1)	(49,17)	(127,4)	(48,19)	(33,3)	(99,57)	(117,28)	(131,5)	(116,16)	(211,5)	(119,5)	
L1D -117>	(48,53)	(34,29)	(50,26)	(116,20)	(128,7)	(129,10)	(75,3)	(0,10)	(37,4)	(118,11)	(132,1)	(29,1)	(35,42)	(-1,10)	(54,2)	(115,4)	
L1D -116>	(33,31)	(47,6)	(49,17)	(32,11)	(117,3)	(115,44)	(113,6)	(50,40)	(129,1)	(343,3)	(124,14)	(211,5)	(-1,14)	(209,9)	(74,13)	(34,7)	
L1D -115>	(74,1)	(32,31)	(49,24)	(75,6)	(46,4)	(208,7)	(50,104)	(33,28)	(43,3)	(4,7)	(48,26)	(116,3)	(117,7)	(123,2)	(73,10)	(-1,12)	
L1D -114>	(50,26)	(115,9)	(31,31)	(49,4)	(222,14)	(-1,15)	(32,12)	(131,2)	(93,4)	(47,7)	(123,6)	(121,2)	(72,4)	(133,3)	(132,3)	(84,9)	
L1D -113>	(30,56)	(50,11)	(49,17)	(114,4)	(46,3)	(31,38)	(-1,13)	(84,90)	(45,32)	(208,4)	(71,9)	(67,3)	(28,3)	(32,1)	(48,24)	(130,2)	
L1D -112>	(29,12)	(48,7)	(84,99)	(123,5)	(31,1)	(-1,6)	(205,21)	(111,13)	(133,5)	(28,4)	(27,5)	(26,9)	(69,9)	(30,15)	(25,3)	(70,6)	
L1D -111>	(112,13)	(84,113)	(50,19)	(28,57)	(49,20)	(48,21)	(204,11)	(113,9)	(26,9)	(110,15)	(29,1)	(42,6)	(25,11)	(-1,27)	(206,9)	(24,6)	
L1D -110>	(27,9)	(48,1)	(85,4)	(84,67)	(111,3)	(50,5)	(-1,15)	(121,5)	(24,2)	(25,5)	(-24,2)	(108,1)	(4,1)	(23,1)	(44,5)	(49,1)	
L1D -109>	(50,5)	(84,81)	(25,8)	(19,8)	(15,1)	(29,7)	(20,13)	(26,22)	(27,26)	(24,2)	(111,5)	(17,1)	(49,3)	(-1,12)	(23,4)	(48,7)	
L1D -108>	(84,88)	(50,13)	(105,8)	(22,17)	(16,1)	(14,1)	(24,6)	(85,4)	(26,12)	(109,4)	(25,4)	(23,2)	(111,6)	(-1,1)	(28,2)	(93,3)	
L1D -107>	(22,6)	(84,113)	(50,14)	(-1,4)	(25,4)	(27,3)	(21,4)	(24,39)	(1,36)	(83,1)	(26,2)	(28,13)	(333,5)	(23,2)	(86,4)	(15,4)	
L1D -106>	(84,72)	(95,1)	(21,1)	(50,30)	(12,1)	(87,2)	(28,3)	(93,4)	(-1,5)	(109,2)	(199,1)	(25,1)	(86,8)	(35,1)	(85,11)	(105,1)	
L1D -105>	(84,116)	(107,11)	(20,6)	(50,7)	(22,16)	(11,7)	(106,3)	(199,3)	(-1,2)	(19,2)	(12,1)	(32,1)	(13,1)	(23,23)	(104,2)	(195,7)	
L1D -104>	(84,116)	(21,6)	(222,1)	(104,2)	(119,3)	(103,21)	(19,2)	(10,2)	(-30,3)	(85,2)	(194,7)	(22,19)	(15,15)	(191,3)	(105,5)	(2,9)	
L1D -103>	(84,92)	(18,4)	(85,8)	(9,1)	(99,4)	(118,4)	(25,5)	(22,5)	(11,2)	(23,4)	(27,3)	(107,9)	(21,2)	(196,3)	(32,4)	(95,3)	
L1D -102>	(84,68)	(17,2)	(101,2)	(8,1)	(103,2)	(-31,2)	(15,1)	(9,1)	(105,1)	(14,1)	(85,1)	(86,5)	(10,1)	(99,2)	(18,1)	(196,1)	
L1D -101>	(84,124)	(36,1)	(16,4)	(9,3)	(15,1)	(103,2)	(98,1)	(105,1)	(99,2)	(52,7)	(86,4)	(6,2)	(334,2)	(93,2)	(191,4)	(85,5)	
L1D -100>	(84,113)	(15,4)	(16,1)	(109,1)	(18,1)	(6,3)	(3,2)	(58,15)	(14,5)	(99,3)	(191,7)	(-18,1)	(85,7)	(-21,1)	(86,1)	(98,1)	
L1D -99>	(84,82)	(14,4)	(191,1)	(13,5)	(85,2)	(1,16)	(97,1)	(105,1)	(15,1)	(-123,1)	(16,1)	(-25,1)	(96,1)	(93,0)	(4,1)	(107,0)	
L1D -98>	(84,118)	(85,6)	(86,4)	(93,1)	(13,1)	(19,1)	(12,2)	(2,1)	(4,1)	(-1,4)	(-36,1)	(138,1)	(96,1)	(95,2)	(83,4)	(97,2)	
L1D -97>	(84,77)	(12,3)	(27,6)	(59,3)	(-1,1)	(96,5)	(8,1)	(87,2)	(95,19)	(93,1)	(85,1)	(83,1)	(99,0)	(2,1)	(92,1)	(98,1)	
L1D -96>	(84,72)	(87,3)	(91,13)	(90,18)	(93,6)	(1,1)	(-38,1)	(11,2)	(85,7)	(88,1)	(94,2)	(89,1)	(96,3)	(95,4)	(-1,4)	(92,3)	
L1D -95>	(84,70)	(10,2)	(93,9)	(-1,9)	(90,2)	(94,13)	(85,6)	(1,5)	(92,9)	(96,1)	(83,1)	(21,1)	(104,2)	(9,2)	(88,3)	(82,1)	
L1D -94>	(84,79)	(98,11)	(93,54)	(94,32)	(95,35)	(91,33)	(92,44)	(96,53)	(-39,1)	(1,3)	(97,43)	(103,10)	(-2,43)	(90,17)	(86,7)	(99,13)	
L1D -93>	(84,109)	(1,94)	(8,6)	(90,11)	(95,22)	(101,1)	(85,4)	(94,48)	(96,11)	(91,8)	(93,7)	(5,3)	(92,13)	(4,9)	(-1,8)	(2,3)	
L1D -92>	(84,66)	(-1,20)	(3,8)	(93,24)	(96,28)	(91,38)	(89,9)	(88,6)	(2,13)	(92,1)	(94,25)	(90,19)	(105,2)	(82,4)	(-2,17)	(103,3)	
L1D -91>	(84,63)	(6,3)	(87,2)	(4,4)	(100,1)	(93,8)	(1,85)	(92,2)	(86,6)	(72,1)	(89,6)	(94,5)	(85,12)	(5,5)	(88,4)	(-1,3)	
L1D -90>	(-1,1)	(84,121)	(93,14)	(144,13)	(89,6)	(-9,10)	(85,17)	(-22,2)	(92,7)	(-19,9)	(-2,4)	(88,14)	(91,10)	(143,8)	(145,2)	(94,3)	
L1D -89>	(84,116)	(4,13)	(2,16)	(88,13)	(1,28)	(90,10)	(-1,11)	(-23,6)	(-8,6)	(86,22)	(81,10)	(91,14)	(89,1)	(85,26)	(-43,7)	(93,16)	
L1D -88>	(-19,28)	(84,127)	(-15,19)	(-11,54)	(81,7)	(87,11)	(-46,14)	(-8,22)	(88,1)	(-6,23)	(-1,21)	(83,52)	(85,45)	(-5,9)	(82,30)	(86,16)	
L1D -87>	(84,92)	(-4,9)	(87,9)	(-1,68)	(-46,2)	(-11,22)	(-19,13)	(-2,4)	(-7,8)	(-47,5)	(83,27)	(86,13)	(-5,6)	(-12,12)	(85,13)	(93,7)	
L1D -86>	(84,93)	(-47,5)	(-12,1)	(-4,8)	(82,12)	(-15,11)	(-11,8)	(85,14)	(-16,6)	(83,25)	(-2,24)	(-48,19)	(-9,9)	(-1,21)	(-8,10)	(-13,21)	
L1D -85>	(84,105)	(81,15)	(83,28)	(94,1)	(-9,14)	(-19,6)	(-7,8)	(-47,3)	(-3,27)	(-1,41)	(-12,8)	(80,18)	(82,22)	(-14,14)	(-15,10)	(-6,8)	
L1D -84>	(83,116)	(-6,28)	(84,94)	(114,15)	(-10,1)	(86,4)	(-15,17)	(-14,12)	(-4,52)	(-27,9)	(115,38)	(-1,109)	(-3,17)	(-50,79)	(-9,21)	(82,25)	
L1D -83>	(84,125)	(96,14)	(82,21)	(3,14)	(2,15)	(88,37)	(83,2)	(-1,15)	(17,23)	(11,12)	(21,4)	(86,30)	(95,14)	(93,12)	(97,17)	(94,18)	
L1D -82>	(11,1)	(84,22)	(17,1)	(15,1)	(81,112)	(-1,6)	(85,3)	(4,4)	(16,1)	(82,2)	(1,1)	(87,1)	(-50,2)	(-17,0)	(91,2)	(21,0)	
L1D -81>	(84,27)	(80,97)	(-1,3)	(-14,1)	(8,1)	(86,2)	(12,1)	(89,1)	(-6,4)	(85,3)	(-50,1)	(9,1)	(3,6)	(1,1)	(146,0)	(6,0)	
L1D -80>	(84,67)	(-2,1)	(1,7)	(-4,6)	(-50,4)	(80,6)	(81,6)	(82,7)	(-1,2)	(-6,1)	(85,23)	(7,2)	(6,2)	(8,4)	(2,21)	(-16,1)	
L1D -79>	(84,105)	(79,20)	(81,14)	(-4,9)	(-12,4)	(-48,2)	(86,5)	(-16,3)	(-2,23)	(85,11)	(78,4)	(82,19)	(-50,13)	(-1,18)	(87,1)	(-28,4)	
L1D -78>	(84,84)	(-3,4)	(-6,2)	(-5,4)	(81,9)	(77,1)	(78,15)	(80,35)	(6,2)	(82,33)	(-15,4)	(83,11)	(-1,8)	(146,1)	(-14,2)	(-4,1)	
L1D -77>	(84,80)	(1,2)	(-1,3)	(77,7)	(-4,14)	(-6,3)	(79,7)	(81,16)	(5,3)	(82,3)	(-3,7)	(80,4)	(144,2)	(85,2)	(-47,7)	(-48,1)	
L1D -76>	(75,1)	(84,81)	(78,1)	(-7,2)	(80,5)	(82,1)	(83,2)	(76,3)	(6,1)	(79,11)	(81,2)	(-46,1)	(85,1)	(-2,4)	(5,1)	(-1,11)	
L1D -75>	(84,80)	(75,10)	(4,2)	(83,2)	(-8,8)	(30,9)	(-3,1)	(-1,10)	(74,4)	(36,1)	(3,6)	(79,2)	(37,5)	(-50,1)	(-6,1)	(78,7)	
L1D -74>	(-21,1)	(-9,20)	(84,71)	(-3,3)	(79,1)	(2,4)	(74,11)	(-1,19)	(78,4)	(-7,1)	(67,2)	(-8,2)	(115,4)	(83,8)	(75,2)	(-2,4)	
L1D -73>	(-10,14)	(84,120)	(-8,6)	(74,8)	(79,2)	(-15,1)	(72,6)	(83,17)	(21,5)	(65,8)	(75,6)	(35,2)	(-2,4)	(105,2)	(-1,11)	(73,23)	
L1D -72>	(84,94)	(-11,5)	(73,4)	(116,2)	(71,2)	(-1,19)	(78,1)	(72,15)	(-10,16)	(81,1)	(57,1)	(79,3)	(83,6)	(-18,2)	(80,3)	(63,3)	
L1D -71>	(84,84)	(-12,7)	(15,2)	(72,4)	(70,3)	(-2,6)	(61,8)	(-1,13)	(-10,16)	(-22,3)	(30,1)	(-11,2)	(73,2)	(83,3)	(57,2)	(71,14)	
L1D -70>	(84,83)	(-13,10)	(-1,25)	(69,22)	(71,8)	(70,22)	(-12,3)	(83,4)	(73,2)	(59,3)	(112,3)	(-26,1)	(111,1)	(-11,2)	(110,4)	(-10,6)	
L1D -69>	(84,66)	(86,0)	(-14,7)	(-1,5)	(68,2)	(70,1)	(-13,3)	(71,1)	(-11,0)	(-25,0)	(30,2)	(-12,2)	(82,0)	(31,3)	(69,13)	(-49,4)	
L1D -68>	(68,24)	(84,69)	(-15,16)	(67,18)	(-1,11)	(42,3)	(83,6)	(69,31)	(85,3)	(70,7)	(57,1)	(71,3)	(82,2)	(119,1)	(-14,2)	(121,1)	
L1D -67>	(84,105)	(-16,12)	(66,22)	(68,27)	(85,6)	(-1,24)	(82,3)	(-5,1)	(121,3)	(65,2)	(-14,10)	(110,6)	(67,55)	(116,2)	(-15,7)	(83,4)	
L1D -66>	(84,77)	(-17,16)	(146,3)	(85,12)	(68,4)	(65,16)	(-2,1)	(-1,24)	(112,3)	(57,1)	(64,1)	(67,30)	(-16,7)	(-15,2)	(71,4)	(66,33)	
L1D -65>	(84,96)	(-3,3)	(-18,14)	(-1,10)	(43,18)	(72,1)	(9,1)	(67,10)	(65,15)	(122,2)	(1,8)	(112,5)	(20,35)	(-17,18)	(23,1)	(66,7)	
L1D -64>	(84,89)	(-19,20)	(76,1)	(22,3)	(43,5)	(-18,3)	(8,3)	(123,2)	(85,7)	(82,3)	(63,4)	(122,2)	(66,6)	(57,3)	(65,12)	(-1,10)	
L1D -63>	(84,70)	(-20,21)	(-1,2)	(65,6)	(21,1)	(42,3)	(-2,1)	(7,2)	(120,5)	(-49,0)	(14,0)	(64,2)	(-48,0)	(83,1)	(122,2)	(1,1)	
L1D -62>	(84,52)	(-21,19)	(43,4)	(67,1)	(146,2)	(61,2)	(119,1)	(6,2)	(45,1)	(20,3)	(83,1)	(65,1)	(85,16)	(114,3)	(2,80)	(64,1)	
L1D -61>	(84,127)	(-22,54)	(62,3)	(5,4)	(42,7)	(-18,47)	(-20,8)	(49,1)	(-1,15)	(63,50)	(59,4)	(66,4)	(-19,16)	(86,6)	(65,4)	(119,5)	
L1D -60>	(-23,47)	(84,71)	(85,22)	(61,7)	(18,4)	(42,18)	(-1,26)	(-2,5)	(43,4)	(55,4)	(19,1)	(4,1)	(62,13)	(64,3)	(117,10)	(-133,1)	
L1D -59>	(84,73)	(60,8)	(17,18)	(-24,15)	(42,12)	(61,3)	(1,1)	(43,7)	(55,7)	(117,3)	(-2,5)	(14,108)	(-50,11)	(44,2)	(-85,3)	(-23,5)	
L1D -58>	(84,79)	(-25,15)	(1,89)	(59,4)	(2,84)	(42,26)	(53,9)	(123,16)	(52,1)	(54,10)	(56,7)	(208,11)	(100,27)	(16,11)	(-3,2)	(63,5)	
L1D -57>	(1,123)	(43,2)	(42,6)	(-87,2)	(84,68)	(56,4)	(-1,3)	(-26,6)	(58,2)	(55,12)	(44,3)	(64,1)	(12,10)	(50,1)	(52,8)	(51,3)	
L1D -56>	(61,33)	(60,29)	(65,20)	(1,19)	(53,1)	(57,85)	(8,8)	(55,76)	(42,17)	(64,16)	(49,17)	(44,13)	(54,71)	(62,30)	(48,14)	(69,12)	
L1D -55>	(-1,68)	(13,8)	(52,8)	(54,25)	(53,15)	(56,11)	(42,29)	(-2,1)	(84,32)	(58,16)	(46,6)	(-28,4)	(45,3)	(50,3)	(70,2)	(-50,2)	
L1D -54>	(57,77)	(53,22)	(58,14)	(-1,31)	(55,17)	(84,27)	(42,52)	(54,2)	(-2,41)	(12,7)	(49,7)	(2,39)	(52,15)	(50,14)	(44,9)	(36,4)	
L1D -53>	(1,101)	(54,3)	(11,3)	(46,1)	(-28,1)	(84,14)	(-27,1)	(48,1)	(55,1)	(10,1)	(42,3)	(9,1)	(57,1)	(-3,3)	(43,2)	(49,1)	
L1D -52>	(53,5)	(55,8)	(51,9)	(54,4)	(42,17)	(48,5)	(38,1)	(-4,14)	(2,6)	(47,7)	(-1,7)	(-31,77)	(1,2)	(43,6)	(56,4)	(84,7)	
L1D -51>	(52,14)	(42,56)	(10,13)	(43,12)	(56,13)	(40,1)	(94,2)	(58,7)	(49,4)	(-50,2)	(1,3)	(50,8)	(55,10)	(-38,1)	(2,1)	(53,5)	
L1D -50>	(134,67)	(56,1)	(8,12)	(55,25)	(42,15)	(1,49)	(-57,10)	(51,2)	(49,14)	(45,9)	(52,3)	(44,12)	(133,94)	(46,17)	(48,22)	(-1,20)	
L1D -49>	(133,123)	(1,36)	(-50,4)	(55,7)	(131,1)	(34,4)	(2,68)	(40,3)	(42,8)	(132,35)	(134,7)	(48,19)	(7,4)	(6,13)	(56,6)	(46,10)	
L1D -48>	(49,7)	(132,75)	(133,25)	(1,2)	(6,7)	(43,4)	(42,7)	(131,13)	(45,8)	(51,5)	(47,6)	(36,1)	(44,1)	(-8,1)	(52,2)	(-1,7)	
L1D -47>	(131,100)	(36,31)	(48,37)	(46,24)	(1,28)	(5,11)	(42,19)	(132,29)	(129,45)	(43,57)	(-1,17)	(49,28)	(34,13)	(45,1)	(130,16)	(35,13)	
L1D -46>	(130,14)	(31,1)	(47,6)	(1,4)	(45,8)	(40,83)	(48,15)	(2,3)	(128,5)	(42,29)	(-1,19)	(50,12)	(56,2)	(49,4)	(43,19)	(41,18)	
L1D -45>	(129,25)	(47,26)	(41,57)	(46,42)	(58,1)	(-11,10)	(48,87)	(54,6)	(39,29)	(42,51)	(43,52)	(44,25)	(3,37)	(1,34)	(22,54)	(35,11)	
L1D -44>	(41,2)	(3,2)	(39,9)	(37,5)	(46,4)	(4,19)	(47,6)	(-12,3)	(42,26)	(48,17)	(2,5)	(44,117)	(40,18)	(49,9)	(-1,6)	(43,10)	
L1D -43>	(38,25)	(44,7)	(50,16)	(40,55)	(1,33)	(37,1)	(42,71)	(41,82)	(30,8)	(29,16)	(-15,2)	(-1,24)	(26,6)	(31,11)	(131,4)	(34,8)	
L1D -42>	(43,19)	(-3,7)	(41,64)	(55,1)	(1,7)	(33,6)	(48,8)	(38,7)	(39,12)	(37,8)	(44,15)	(47,9)	(45,11)	(50,7)	(40,39)	(46,6)	
L1D -41>	(42,83)	(44,33)	(49,39)	(29,14)	(-1,17)	(40,41)	(50,43)	(36,18)	(10,10)	(53,1)	(46,17)	(127,3)	(45,21)	(1,50)	(28,13)	(43,51)	
L1D -40>	(41,33)	(45,28)	(42,25)	(2,19)	(50,14)	(43,125)	(39,13)	(1,17)	(25,1)	(55,8)	(-3,9)	(38,8)	(47,14)	(44,32)	(49,13)	(-2,5)	
L1D -39>	(50,15)	(132,9)	(40,22)	(1,53)	(4,7)	(35,4)	(55,4)	(2,5)	(42,55)	(6,120)	(18,17)	(47,1)	(-1,40)	(45,45)	(41,30)	(46,9)	
L1D -38>	(1,5)	(122,9)	(44,1)	(55,8)	(39,51)	(2,24)	(42,65)	(47,17)	(40,16)	(4,7)	(-1,15)	(38,15)	(43,40)	(-2,20)	(131,6)	(41,41)	
L1D -37>	(121,10)	(38,57)	(41,32)	(39,12)	(55,6)	(42,44)	(-2,12)	(40,17)	(24,14)	(2,6)	(-35,45)	(130,11)	(43,1)	(35,8)	(-19,4)	(56,20)	
L1D -36>	(120,13)	(6,16)	(37,40)	(130,3)	(-3,1)	(50,37)	(42,22)	(40,29)	(2,2)	(-1,10)	(1,2)	(41,52)	(131,8)	(49,10)	(38,16)	(-5,2)	
L1D -35>	(41,34)	(36,9)	(55,5)	(54,1)	(42,61)	(14,45)	(119,32)	(131,2)	(37,51)	(-4,11)	(1,7)	(-7,9)	(128,4)	(0,41)	(34,15)	(50,39)	
L1D -34>	(44,7)	(-8,10)	(2,4)	(50,25)	(35,14)	(41,26)	(42,50)	(36,1)	(297,2)	(32,6)	(-1,17)	(37,13)	(48,7)	(54,4)	(119,10)	(118,19)	
L1D -33>	(37,6)	(-1,19)	(34,25)	(-9,12)	(12,30)	(41,22)	(50,31)	(35,2)	(42,61)	(36,33)	(32,14)	(31,13)	(18,3)	(-86,2)	(0,45)	(117,28)	
L1D -32>	(116,8)	(41,12)	(33,25)	(-9,7)	(42,21)	(73,50)	(31,26)	(-1,77)	(123,44)	(30,15)	(49,13)	(50,10)	(43,1)	(56,9)	(32,4)	(132,4)	
L1D -31>	(31,23)	(1,19)	(4,125)	(2,83)	(32,8)	(42,29)	(48,3)	(50,27)	(41,13)	(30,3)	(28,2)	(-1,25)	(33,26)	(-11,15)	(5,33)	(115,9)	
L1D -30>	(29,10)	(114,3)	(1,24)	(6,36)	(42,12)	(-11,10)	(-26,1)	(31,10)	(13,4)	(115,4)	(41,12)	(32,9)	(50,4)	(38,5)	(3,18)	(5,66)	
L1D -29>	(1,33)	(2,36)	(28,6)	(-12,7)	(30,6)	(4,101)	(42,27)	(5,41)	(6,43)	(56,1)	(3,26)	(-1,10)	(41,11)	(50,23)	(-92,91)	(32,14)	
L1D -28>	(1,110)	(2,68)	(13,9)	(27,22)	(50,21)	(29,31)	(24,12)	(-1,14)	(6,41)	(84,4)	(3,56)	(5,39)	(4,15)	(110,13)	(31,2)	(-12,6)	
L1D -27>	(42,15)	(26,15)	(1,98)	(29,2)	(27,87)	(-1,19)	(111,15)	(50,47)	(8,122)	(79,120)	(5,75)	(4,81)	(6,37)	(198,14)	(24,21)	(109,5)	
L1D -26>	(4,72)	(27,40)	(1,79)	(24,17)	(2,85)	(-81,9)	(25,42)	(42,14)	(50,22)	(84,24)	(3,96)	(6,29)	(110,85)	(5,39)	(21,3)	(38,1)	
L1D -25>	(84,5)	(-60,5)	(7,74)	(1,3)	(50,5)	(41,2)	(6,4)	(2,38)	(-61,6)	(-83,6)	(3,11)	(25,26)	(4,12)	(5,1)	(109,12)	(29,4)	
L1D -24>	(25,11)	(-1,1)	(23,7)	(1,100)	(42,5)	(4,17)	(2,59)	(-83,8)	(110,4)	(84,34)	(-42,7)	(5,18)	(6,17)	(3,18)	(108,11)	(21,4)	
L1D -23>	(84,11)	(31,24)	(17,82)	(1,31)	(22,7)	(111,5)	(21,16)	(20,10)	(-18,1)	(19,13)	(2,19)	(4,12)	(6,36)	(18,56)	(3,23)	(5,13)	
L1D -22>	(19,13)	(84,19)	(21,4)	(1,21)	(16,74)	(-64,5)	(-42,1)	(3,15)	(2,17)	(106,6)	(4,4)	(5,7)	(6,11)	(17,30)	(18,16)	(20,7)	
L1D -21>	(3,8)	(84,19)	(2,13)	(1,13)	(-83,7)	(7,1)	(15,107)	(30,4)	(5,8)	(-64,5)	(19,8)	(-42,4)	(18,7)	(57,2)	(4,4)	(6,64)	
L1D -20>	(84,11)	(5,56)	(20,81)	(4,1)	(1,4)	(7,20)	(85,1)	(31,6)	(14,21)	(6,45)	(10,7)	(15,15)	(18,7)	(28,4)	(-83,6)	(30,8)	
L1D -19>	(4,96)	(84,57)	(31,10)	(25,1)	(16,10)	(17,10)	(18,2)	(15,15)	(6,120)	(14,35)	(13,68)	(27,16)	(12,23)	(5,15)	(3,13)	(30,12)	
L1D -18>	(84,28)	(11,10)	(6,100)	(2,8)	(1,15)	(17,9)	(5,22)	(12,33)	(29,1)	(14,21)	(-83,5)	(8,6)	(15,25)	(3,90)	(30,17)	(4,39)	
L1D -17>	(84,32)	(6,94)	(13,8)	(60,3)	(27,1)	(2,73)	(15,21)	(-83,8)	(-56,4)	(26,12)	(14,6)	(4,29)	(5,27)	(3,14)	(11,37)	(12,5)	
L1D -16>	(84,23)	(10,6)	(12,3)	(-92,3)	(1,31)	(2,8)	(-42,5)	(11,7)	(7,1)	(-83,2)	(6,76)	(4,22)	(5,9)	(3,10)	(29,6)	(14,10)	
L1D -15>	(84,12)	(10,14)	(11,26)	(4,7)	(6,91)	(12,29)	(28,1)	(1,6)	(13,12)	(3,4)	(14,6)	(30,6)	(5,36)	(9,18)	(25,3)	(-83,2)	
L1D -14>	(84,35)	(-83,11)	(10,10)	(4,11)	(1,8)	(5,4)	(20,1)	(13,3)	(9,16)	(11,5)	(12,7)	(3,7)	(6,75)	(2,8)	(21,2)	(8,36)	
L1D -13>	(84,9)	(24,2)	(-83,2)	(23,1)	(1,7)	(11,1)	(6,80)	(2,12)	(12,1)	(4,1)	(3,7)	(20,2)	(5,11)	(22,5)	(18,1)	(10,4)	
L1D -12>	(84,16)	(6,104)	(5,40)	(10,40)	(-83,6)	(8,16)	(1,5)	(11,17)	(2,10)	(43,2)	(3,9)	(4,12)	(18,25)	(9,21)	(96,3)	(-11,1)	
L1D -11>	(84,53)	(7,18)	(-92,2)	(4,50)	(-42,6)	(6,79)	(1,6)	(10,12)	(2,8)	(8,26)	(15,1)	(5,18)	(3,13)	(16,9)	(9,7)	(22,6)	
L1D -10>	(84,26)	(21,8)	(4,16)	(6,118)	(7,5)	(94,28)	(9,71)	(1,13)	(19,1)	(8,20)	(3,8)	(15,13)	(43,11)	(2,9)	(5,25)	(17,5)	
L1D -9>	(-12,1)	(84,40)	(-94,10)	(-56,6)	(4,12)	(6,85)	(3,8)	(5,16)	(14,8)	(8,19)	(1,8)	(2,30)	(0,4)	(16,2)	(-83,6)	(7,15)	
L1D -8>	(84,28)	(-12,1)	(-15,14)	(8,70)	(9,14)	(1,11)	(4,23)	(-83,3)	(7,22)	(5,11)	(3,12)	(11,3)	(6,81)	(2,15)	(-42,6)	(13,14)	
L1D -7>	(84,31)	(14,1)	(3,12)	(5,63)	(7,57)	(-14,13)	(-1,47)	(9,58)	(-6,32)	(4,44)	(8,50)	(6,120)	(10,15)	(1,11)	(2,14)	(11,13)	
L1D -6>	(84,13)	(-8,62)	(-1,44)	(-11,43)	(-3,1)	(4,20)	(-2,92)	(1,11)	(-13,53)	(-10,49)	(-7,10)	(-12,30)	(5,49)	(12,45)	(-15,36)	(-9,38)	
L1D -5>	(84,10)	(-10,36)	(-3,65)	(-7,34)	(8,48)	(-1,58)	(-13,26)	(-6,24)	(-20,1)	(-11,5)	(-18,11)	(4,48)	(-15,81)	(-12,23)	(3,4)	(-16,19)	
L1D -4>	(84,13)	(-10,14)	(-8,30)	(-17,31)	(2,10)	(-2,26)	(-13,73)	(-1,65)	(-5,1)	(-11,58)	(-6,32)	(-3,60)	(-15,119)	(3,109)	(-4,70)	(-12,42)	
L1D -3>	(84,14)	(-18,1)	(-94,13)	(-1,38)	(1,21)	(2,97)	(-11,47)	(-15,81)	(-5,70)	(-12,72)	(-3,37)	(3,6)	(-8,15)	(6,15)	(-4,26)	(-2,40)	
L1D -2>	(-14,22)	(-4,59)	(-21,1)	(1,81)	(-6,22)	(-2,26)	(-3,34)	(-5,51)	(-15,57)	(-1,21)	(-7,88)	(-19,43)	(-13,63)	(-10,6)	(-11,41)	(-9,8)	
L1D -1>	(-7,10)	(-11,1)	(-46,1)	(-1,68)	(-23,4)	(-13,14)	(-5,32)	(-2,6)	(-12,3)	(40,1)	(41,1)	(-44,1)	(-4,15)	(-14,2)	(-41,1)	(-15,12)	
L1D 0>	(-8,2)	(0,105)	(5,2)	(-70,6)	(-4,5)	(-11,1)	(1,12)	(-94,2)	(-2,4)	(-82,2)	(-77,1)	(-76,1)	(8,1)	(130,3)	(-6,19)	(-88,1)	
L1D 1>	(-136,0)	(91,7)	(1,64)	(23,6)	(90,5)	(-1,3)	(122,1)	(5,4)	(2,8)	(-78,1)	(-82,2)	(4,3)	(-3,5)	(-42,1)	(3,2)	(-80,1)	
L1D 2>	(-42,13)	(2,9)	(4,15)	(9,8)	(-83,30)	(84,18)	(10,11)	(6,69)	(-13,1)	(11,5)	(1,41)	(12,12)	(-2,86)	(-5,11)	(-16,12)	(-10,27)	
L1D 3>	(84,24)	(8,10)	(7,20)	(-3,100)	(9,13)	(-7,7)	(-83,16)	(1,17)	(-81,14)	(14,21)	(13,1)	(5,14)	(4,8)	(3,21)	(-1,12)	(-2,14)	
L1D 4>	(-3,18)	(2,88)	(32,50)	(8,93)	(-4,105)	(84,54)	(4,46)	(1,36)	(-1,37)	(5,1)	(-16,15)	(-2,9)	(3,60)	(9,33)	(10,50)	(-42,9)	
L1D 5>	(10,26)	(-5,50)	(6,88)	(-3,17)	(-1,49)	(3,36)	(8,19)	(-2,27)	(9,18)	(-4,11)	(-20,1)	(-19,22)	(12,22)	(11,14)	(1,80)	(-13,7)	
L1D 6>	(-1,32)	(-2,6)	(18,31)	(-4,10)	(2,78)	(8,59)	(9,52)	(24,1)	(17,44)	(84,3)	(-6,35)	(22,34)	(1,25)	(14,38)	(-5,37)	(21,43)	
L1D 7>	(-15,6)	(8,18)	(12,1)	(1,113)	(-42,10)	(-4,73)	(-6,43)	(-3,40)	(-1,15)	(-13,7)	(-7,117)	(-5,32)	(84,16)	(-2,115)	(23,30)	(9,9)	
L1D 8>	(5,11)	(7,19)	(-17,5)	(-85,4)	(-3,52)	(-8,62)	(-9,1)	(-49,5)	(-4,44)	(8,42)	(-1,50)	(84,11)	(-5,11)	(-6,81)	(-2,36)	(3,4)	
L1D 9>	(-92,3)	(-20,1)	(-85,4)	(84,11)	(-8,17)	(-10,5)	(-4,51)	(-5,12)	(-3,33)	(5,7)	(-1,12)	(50,1)	(32,4)	(-2,61)	(-7,7)	(-6,99)	
L1D 10>	(-7,12)	(-85,9)	(-8,26)	(-2,9)	(84,12)	(31,15)	(-3,115)	(-4,41)	(-13,1)	(-10,56)	(74,6)	(-6,58)	(-5,45)	(-42,6)	(-1,64)	(-9,16)	
L1D 11>	(84,15)	(-3,22)	(-94,2)	(-92,3)	(-26,1)	(-1,31)	(-85,4)	(-42,5)	(-8,11)	(-7,5)	(-10,22)	(-4,89)	(-2,33)	(-9,5)	(-6,36)	(-5,5)	
L1D 12>	(-5,126)	(-7,6)	(-3,31)	(-11,9)	(-6,54)	(-29,1)	(1,4)	(-9,7)	(84,16)	(-12,41)	(-1,34)	(-8,11)	(-10,30)	(-2,25)	(-4,23)	(-85,10)	
L1D 13>	(-92,1)	(-9,7)	(-5,5)	(-6,68)	(-8,7)	(-4,35)	(-24,0)	(-1,25)	(-12,17)	(-96,2)	(-85,6)	(-11,14)	(-2,25)	(-10,6)	(84,7)	(-3,14)	
L1D 14>	(-6,111)	(-42,6)	(-7,34)	(-3,67)	(-5,88)	(-11,25)	(1,15)	(-9,1)	(-13,29)	(-1,65)	(-12,45)	(-97,14)	(-2,90)	(84,38)	(-94,7)	(-85,17)	
L1D 15>	(-11,52)	(-9,30)	(-5,7)	(11,16)	(0,1)	(-1,11)	(-14,54)	(-10,29)	(-3,27)	(-12,42)	(-13,105)	(-6,108)	(-2,54)	(-4,33)	(69,5)	(84,43)	
L1D 16>	(-13,8)	(11,1)	(68,3)	(13,2)	(-15,11)	(-56,1)	(-14,30)	(-1,87)	(-3,7)	(-2,2)	(-12,6)	(-85,5)	(-4,11)	(-42,7)	(84,7)	(-97,1)	
L1D 17>	(13,1)	(-86,2)	(-3,1)	(-5,1)	(-16,4)	(-11,2)	(-1,4)	(-15,31)	(84,9)	(-4,4)	(-2,85)	(-85,4)	(-42,4)	(-14,6)	(-12,5)	(-13,5)	
L1D 18>	(12,5)	(-85,9)	(-42,2)	(-5,8)	(66,1)	(-12,5)	(-15,16)	(-17,4)	(-1,33)	(-16,49)	(-2,5)	(-3,85)	(-13,5)	(84,18)	(-14,15)	(-86,5)	
L1D 19>	(6,1)	(84,45)	(-102,5)	(-3,26)	(-1,51)	(-18,11)	(-17,11)	(-13,4)	(-60,1)	(-16,16)	(-56,3)	(-42,6)	(-2,49)	(-85,6)	(-15,18)	(-4,115)	
L1D 20>	(-3,42)	(-20,104)	(-5,75)	(-16,14)	(-2,41)	(-4,8)	(-13,1)	(-1,14)	(-18,9)	(16,2)	(-6,4)	(91,4)	(84,13)	(-85,9)	(-15,8)	(-17,9)	
L1D 21>	(84,30)	(-42,12)	(-16,9)	(-20,19)	(-1,10)	(-19,42)	(-14,2)	(-17,44)	(-15,22)	(-3,20)	(-85,5)	(-6,18)	(-2,17)	(-103,5)	(-18,22)	(-4,80)	
L1D 22>	(-19,62)	(-17,10)	(-18,21)	(84,25)	(-5,82)	(-42,9)	(-1,58)	(-21,20)	(-20,21)	(-2,5)	(-7,14)	(-6,11)	(-16,10)	(-3,4)	(-41,1)	(5,7)	
L1D 23>	(-5,15)	(-14,1)	(-17,12)	(-12,2)	(-42,7)	(-22,20)	(-21,105)	(-1,22)	(-3,10)	(-7,7)	(-2,30)	(-20,109)	(84,23)	(-18,30)	(-19,40)	(-6,19)	
L1D 24>	(81,2)	(-5,1)	(-3,25)	(-42,5)	(-2,40)	(-23,19)	(-1,119)	(-22,37)	(-4,11)	(-25,3)	(-21,9)	(84,16)	(-19,1)	(1,2)	(-20,2)	(-6,4)	
L1D 25>	(84,10)	(11,1)	(-22,2)	(-42,6)	(3,2)	(-40,1)	(-2,70)	(-1,1)	(-4,5)	(-23,21)	(-24,3)	(-6,0)	(-21,3)	(81,1)	(-14,0)	(-13,1)	
L1D 26>	(-2,16)	(-40,1)	(-41,32)	(84,62)	(-42,68)	(-25,38)	(-24,24)	(1,19)	(-1,16)	(-23,82)	(-22,40)	(-3,108)	(-21,10)	(83,3)	(-5,29)	(-32,6)	
L1D 27>	(-24,6)	(-42,23)	(12,1)	(-56,2)	(-26,18)	(-1,7)	(23,3)	(84,91)	(-21,8)	(-4,26)	(-22,8)	(80,8)	(-23,23)	(-2,4)	(-25,28)	(-40,6)	
L1D 28>	(-1,87)	(84,105)	(-5,43)	(-42,88)	(-23,55)	(-27,96)	(-26,36)	(-24,36)	(1,32)	(-10,86)	(3,1)	(22,15)	(-22,75)	(85,10)	(-41,29)	(-40,18)	
L1D 29>	(-28,29)	(-26,24)	(-42,78)	(-25,9)	(-5,3)	(-2,10)	(84,106)	(-27,10)	(-1,26)	(-3,13)	(-40,13)	(2,31)	(-23,7)	(-24,20)	(8,9)	(27,1)	
L1D 30>	(84,48)	(2,10)	(1,76)	(-42,70)	(11,6)	(-29,70)	(-1,123)	(-81,74)	(10,19)	(-25,1)	(-24,19)	(-7,24)	(-2,46)	(-40,7)	(93,5)	(20,9)	
L1D 31>	(-30,20)	(-82,11)	(84,39)	(-42,53)	(1,6)	(-56,21)	(10,28)	(-2,30)	(-32,14)	(-1,107)	(8,45)	(2,28)	(-29,2)	(-40,11)	(12,3)	(19,9)	
L1D 32>	(-31,14)	(-25,89)	(84,20)	(-1,7)	(-126,10)	(52,42)	(1,7)	(-42,58)	(-35,1)	(-29,44)	(-121,107)	(-28,4)	(-92,7)	(-27,44)	(-132,7)	(0,10)	
L1D 33>	(84,33)	(-1,110)	(-42,31)	(1,5)	(-55,1)	(8,3)	(80,9)	(-41,7)	(-56,5)	(-40,34)	(-35,4)	(81,6)	(4,4)	(-136,5)	(-36,9)	(-34,7)	
L1D 34>	(84,99)	(1,12)	(-42,104)	(-40,13)	(7,22)	(-56,30)	(-35,3)	(16,8)	(-15,3)	(-1,2)	(8,10)	(-7,3)	(20,3)	(2,1)	(-32,1)	(-41,20)	
L1D 35>	(84,97)	(4,7)	(-42,113)	(3,17)	(1,12)	(8,7)	(-39,7)	(-56,15)	(21,1)	(-15,21)	(6,24)	(-40,23)	(5,5)	(2,24)	(87,3)	(-41,27)	
L1D 36>	(84,64)	(-14,24)	(-42,111)	(5,26)	(-56,20)	(9,1)	(-39,8)	(-38,38)	(1,24)	(-41,19)	(4,7)	(2,10)	(85,5)	(6,18)	(-40,25)	(-37,14)	
L1D 37>	(84,98)	(4,36)	(1,18)	(-42,124)	(7,12)	(-56,70)	(-38,35)	(2,79)	(-41,46)	(-40,67)	(6,27)	(-13,33)	(19,1)	(12,21)	(8,14)	(151,19)	
L1D 38>	(-40,17)	(3,16)	(-42,78)	(1,19)	(-1,7)	(-8,4)	(-39,15)	(5,4)	(-54,1)	(-56,17)	(84,56)	(-12,17)	(6,2)	(11,8)	(-41,57)	(4,10)	
L1D 39>	(84,49)	(-43,12)	(1,18)	(-2,9)	(4,6)	(2,20)	(-42,124)	(3,24)	(16,6)	(-56,91)	(-11,35)	(8,14)	(-40,30)	(94,5)	(-41,2)	(0,7)	
L1D 40>	(84,16)	(1,11)	(-40,5)	(-2,11)	(-1,4)	(-42,86)	(-43,13)	(-3,6)	(-45,21)	(4,1)	(-56,11)	(-41,4)	(-15,13)	(-5,4)	(-44,14)	(-46,43)	
L1D 41>	(-44,5)	(-42,102)	(-7,3)	(10,1)	(-3,11)	(-11,11)	(-1,19)	(-56,6)	(-12,5)	(-2,8)	(84,12)	(-5,4)	(-6,2)	(-10,5)	(-43,11)	(-45,6)	
L1D 42>	(1,104)	(16,1)	(-3,41)	(-42,45)	(-35,11)	(-41,48)	(-44,38)	(-1,70)	(-39,21)	(-56,49)	(-2,65)	(-57,70)	(84,59)	(-43,59)	(2,44)	(-6,14)	
L1D 43>	(0,7)	(-56,9)	(-3,10)	(8,5)	(-9,1)	(-42,64)	(84,6)	(2,5)	(6,15)	(-40,10)	(-34,2)	(7,4)	(1,7)	(3,1)	(-43,2)	(-44,9)	
L1D 44>	(1,6)	(2,6)	(-3,6)	(84,25)	(6,43)	(-42,104)	(-43,15)	(-56,28)	(-4,5)	(4,35)	(9,1)	(5,24)	(-1,12)	(-45,6)	(-44,95)	(-40,18)	
L1D 45>	(84,60)	(1,17)	(-5,13)	(7,1)	(-46,4)	(-42,113)	(-44,6)	(-43,3)	(-40,9)	(83,2)	(-56,34)	(86,2)	(4,15)	(-1,10)	(81,6)	(-4,18)	
L1D 46>	(84,69)	(-4,7)	(1,5)	(2,13)	(-42,69)	(3,5)	(-3,16)	(-2,18)	(-6,5)	(-56,21)	(6,1)	(-1,23)	(4,7)	(-14,1)	(-47,2)	(8,2)	
L1D 47>	(84,107)	(1,13)	(-40,1)	(-4,2)	(-42,71)	(-6,3)	(2,38)	(-5,3)	(-2,17)	(-56,71)	(-1,8)	(83,14)	(8,6)	(-46,13)	(-7,12)	(-43,9)	
L1D 48>	(84,69)	(-49,19)	(1,4)	(-42,34)	(6,1)	(81,5)	(-56,17)	(2,4)	(-2,11)	(-4,2)	(83,2)	(-44,12)	(-45,9)	(-1,13)	(-13,6)	(-43,5)	
L1D 49>	(84,95)	(6,3)	(-43,1)	(-6,6)	(-23,1)	(-12,4)	(-42,45)	(-48,2)	(-1,20)	(-56,18)	(-50,8)	(-2,16)	(-3,3)	(83,14)	(8,2)	(-11,4)	
L1D 50>	(-1,11)	(-20,2)	(83,8)	(-10,13)	(84,85)	(0,1)	(-42,26)	(-7,5)	(-8,4)	(-56,7)	(82,3)	(-49,6)	(-21,2)	(-13,1)	(61,1)	(-15,2)	
L1D 51>	(2,37)	(-42,111)	(-56,71)	(1,19)	(-48,20)	(-8,9)	(-1,1)	(-9,3)	(4,11)	(-17,1)	(-54,4)	(-7,7)	(-50,3)	(-6,4)	(-3,3)	(3,1)	
L1D 52>	(-43,4)	(1,48)	(-42,84)	(-9,10)	(-1,20)	(3,5)	(-56,74)	(-53,36)	(-83,6)	(-10,74)	(-3,7)	(-50,49)	(32,9)	(-52,82)	(-51,1)	(-62,92)	
L1D 53>	(1,4)	(2,8)	(-42,67)	(-10,13)	(-3,9)	(-1,16)	(-5,2)	(-56,123)	(-55,4)	(-18,4)	(-4,3)	(-13,2)	(-6,1)	(-2,5)	(-44,1)	(-54,9)	
L1D 54>	(-83,1)	(-53,108)	(1,3)	(-42,33)	(-11,3)	(-3,4)	(-4,1)	(-56,64)	(-144,6)	(-2,6)	(-57,11)	(-7,5)	(-15,3)	(-143,2)	(-1,17)	(-55,27)	
L1D 55>	(-43,2)	(3,9)	(-42,24)	(-8,4)	(-56,89)	(-23,1)	(-12,9)	(-57,13)	(-2,7)	(-5,4)	(-135,1)	(-4,6)	(-1,11)	(-15,7)	(-16,1)	(-58,4)	
L1D 56>	(1,2)	(-42,108)	(-15,6)	(-2,41)	(-4,11)	(-1,50)	(-13,27)	(-9,10)	(-56,73)	(-20,9)	(-57,8)	(-7,1)	(-58,5)	(-3,25)	(-5,8)	(-61,3)	
L1D 57>	(13,1)	(18,1)	(-42,10)	(-56,79)	(4,5)	(-122,2)	(3,14)	(-1,4)	(-3,3)	(-55,1)	(8,4)	(16,1)	(-2,1)	(-47,2)	(1,3)	(20,1)	
L1D 58>	(-42,8)	(-4,2)	(-57,53)	(-56,103)	(-6,1)	(-54,2)	(-9,1)	(11,1)	(5,1)	(1,4)	(6,1)	(-16,1)	(-2,1)	(-55,1)	(-43,1)	(-53,3)	
L1D 59>	(-42,37)	(-57,4)	(-14,2)	(-56,107)	(25,5)	(-55,2)	(-16,4)	(2,19)	(-1,2)	(-61,3)	(-5,1)	(-3,6)	(-60,11)	(-2,2)	(-6,3)	(-40,1)	
L1D 60>	(-41,2)	(24,2)	(-42,72)	(-56,106)	(-143,1)	(-83,6)	(-17,4)	(-58,1)	(-3,4)	(2,1)	(-59,1)	(-1,25)	(-55,4)	(-7,1)	(-144,1)	(-61,2)	
L1D 61>	(-18,4)	(-56,68)	(-62,20)	(1,12)	(-42,14)	(-57,12)	(-59,3)	(8,2)	(2,1)	(0,73)	(-55,2)	(-8,1)	(-4,1)	(-143,1)	(23,15)	(-83,2)	
L1D 62>	(1,14)	(22,15)	(-42,71)	(-56,121)	(-110,3)	(-5,3)	(-54,1)	(-16,1)	(-19,8)	(-61,4)	(-57,2)	(-12,1)	(8,2)	(-2,1)	(-83,22)	(2,2)	
L1D 63>	(-42,19)	(-144,1)	(-56,75)	(1,1)	(-20,6)	(-64,9)	(21,19)	(-6,2)	(-61,2)	(-62,3)	(-3,1)	(-83,24)	(60,1)	(42,15)	(3,42)	(-142,1)	
L1D 64>	(-42,17)	(-56,127)	(-7,7)	(20,15)	(-1,9)	(1,17)	(58,4)	(2,3)	(-63,8)	(-83,30)	(-92,5)	(-58,1)	(-57,3)	(19,5)	(-21,6)	(-41,4)	
L1D 65>	(-56,100)	(-8,5)	(-84,3)	(1,9)	(19,36)	(-22,4)	(-42,25)	(-67,2)	(-66,64)	(-1,7)	(-60,1)	(-81,4)	(-83,33)	(56,2)	(0,21)	(51,1)	
L1D 66>	(18,22)	(1,23)	(-23,2)	(-56,89)	(-22,1)	(-9,8)	(-68,5)	(-92,14)	(-67,74)	(-42,6)	(57,3)	(42,1)	(-83,17)	(45,3)	(0,11)	(-1,16)	
L1D 67>	(17,37)	(1,25)	(2,3)	(-56,77)	(-10,7)	(-1,64)	(-42,13)	(18,5)	(16,3)	(42,12)	(-68,114)	(-83,51)	(-7,1)	(-2,4)	(0,34)	(-43,1)	
L1D 68>	(16,42)	(-69,80)	(1,34)	(-56,52)	(-11,4)	(-42,7)	(-1,49)	(0,14)	(15,7)	(-116,1)	(44,6)	(-92,5)	(-77,2)	(12,6)	(-83,31)	(-82,7)	
L1D 69>	(1,18)	(-56,37)	(-12,3)	(-42,7)	(-70,88)	(-39,17)	(16,1)	(-79,2)	(39,2)	(43,3)	(15,26)	(-1,11)	(-92,5)	(41,1)	(-83,37)	(0,46)	
L1D 70>	(14,21)	(-71,76)	(1,25)	(-1,16)	(-56,94)	(0,18)	(-13,6)	(-92,8)	(13,1)	(-42,20)	(-117,12)	(40,3)	(-82,5)	(-73,3)	(12,4)	(-83,79)	
L1D 71>	(1,25)	(-72,67)	(-56,36)	(13,35)	(-83,16)	(-57,1)	(15,2)	(-92,8)	(20,1)	(-1,12)	(-25,1)	(-73,4)	(5,5)	(-42,48)	(0,11)	(42,8)	
L1D 72>	(12,18)	(-71,11)	(1,30)	(-1,18)	(0,37)	(-56,31)	(-92,13)	(-73,116)	(-58,9)	(-76,1)	(-15,2)	(-83,33)	(-82,8)	(11,9)	(4,5)	(2,4)	
L1D 73>	(11,44)	(-72,11)	(-71,4)	(1,27)	(-92,10)	(-42,28)	(-83,49)	(0,14)	(-2,21)	(-74,86)	(-100,7)	(-15,1)	(-69,10)	(-16,2)	(2,5)	(-56,38)	
L1D 74>	(-73,3)	(10,17)	(1,16)	(-74,28)	(7,14)	(-17,2)	(-56,25)	(8,5)	(-75,83)	(42,3)	(-72,2)	(-38,1)	(-92,11)	(0,4)	(-1,1)	(-83,12)	
L1D 75>	(-74,42)	(1,72)	(-73,8)	(42,7)	(-56,35)	(-92,20)	(-121,7)	(-94,1)	(-1,6)	(-123,15)	(-76,103)	(-18,5)	(9,40)	(4,4)	(0,11)	(-83,74)	
L1D 76>	(-75,70)	(1,55)	(-74,16)	(8,53)	(-77,57)	(-94,8)	(-56,50)	(-19,9)	(-92,38)	(4,101)	(-72,11)	(0,14)	(2,11)	(-73,4)	(-67,1)	(-83,33)	
L1D 77>	(7,63)	(-76,44)	(1,47)	(-94,19)	(-56,29)	(-92,114)	(-75,14)	(3,41)	(-83,26)	(-78,80)	(0,24)	(-82,1)	(-127,23)	(4,18)	(-79,10)	(6,38)	
L1D 78>	(-76,30)	(-77,28)	(1,48)	(-92,54)	(6,54)	(-94,73)	(-73,41)	(-83,23)	(-79,96)	(-56,16)	(4,86)	(0,21)	(2,42)	(8,1)	(-75,50)	(5,66)	
L1D 79>	(-78,4)	(5,11)	(1,90)	(-94,9)	(2,15)	(-56,20)	(-92,17)	(-1,1)	(-80,33)	(-98,4)	(0,2)	(4,19)	(-76,3)	(-83,8)	(-81,8)	(-82,5)	
L1D 80>	(-78,4)	(-81,127)	(-88,2)	(-93,1)	(-77,5)	(4,3)	(-106,1)	(-97,1)	(-129,1)	(-94,0)	(1,3)	(-75,0)	(-128,0)	(-82,1)	(-104,0)	(-83,3)	
L1D 81>	(-85,2)	(-127,2)	(-82,107)	(-88,1)	(-76,1)	(-1,3)	(-94,1)	(-86,1)	(3,1)	(0,1)	(-92,1)	(-128,0)	(-75,0)	(-83,1)	(-77,1)	(-89,0)	
L1D 82>	(2,54)	(-81,10)	(-2,62)	(-79,19)	(-83,107)	(-94,30)	(1,3)	(-92,22)	(-84,44)	(-85,17)	(0,1)	(-1,22)	(-101,10)	(-80,31)	(-77,7)	(-78,31)	
L1D 83>	(-84,119)	(1,18)	(-82,7)	(-86,43)	(-94,43)	(-95,1)	(-92,35)	(-81,12)	(-2,29)	(-1,37)	(-99,16)	(-91,34)	(-93,10)	(-133,19)	(-85,74)	(-3,51)	
L1D 84>	(-83,113)	(-84,1)	(-80,52)	(-93,10)	(-94,19)	(-78,13)	(-73,17)	(-85,84)	(1,36)	(-71,19)	(-75,17)	(-87,38)	(-72,15)	(-82,98)	(-81,59)	(-77,20)	
L1D 85>	(-1,19)	(-94,22)	(1,12)	(-82,24)	(-92,12)	(6,5)	(-134,1)	(-87,5)	(-5,6)	(-133,4)	(-88,9)	(7,14)	(-83,97)	(-3,8)	(-2,16)	(-86,22)	
L1D 86>	(-85,34)	(-83,121)	(-94,95)	(0,1)	(-92,29)	(5,8)	(-78,12)	(-7,4)	(-84,50)	(-82,46)	(-87,53)	(-97,18)	(-88,12)	(1,24)	(-2,33)	(-3,52)	
L1D 87>	(-45,1)	(-85,8)	(-1,10)	(-94,34)	(6,9)	(1,5)	(55,4)	(-92,10)	(-84,16)	(-88,27)	(-90,1)	(-83,80)	(-3,13)	(-98,9)	(2,26)	(-2,7)	
L1D 88>	(-83,65)	(-94,33)	(-85,15)	(-3,1)	(-78,8)	(-88,3)	(-89,23)	(-92,7)	(3,2)	(-11,3)	(32,16)	(2,6)	(-1,8)	(-2,23)	(-8,2)	(5,10)	
L1D 89>	(-85,62)	(-94,100)	(4,59)	(1,64)	(73,12)	(-5,29)	(54,18)	(-92,87)	(-1,31)	(-95,36)	(2,15)	(-90,1)	(-98,8)	(-2,68)	(-82,5)	(-84,42)	
L1D 90>	(-85,6)	(-93,3)	(-94,11)	(-91,7)	(-89,2)	(-74,2)	(32,82)	(-92,10)	(-132,1)	(-96,1)	(-10,9)	(-90,2)	(-2,21)	(-1,9)	(-95,5)	(-13,3)	
L1D 91>	(-10,17)	(-93,13)	(-94,28)	(-92,55)	(-7,9)	(-6,15)	(-3,17)	(-1,16)	(5,101)	(0,1)	(29,9)	(-85,6)	(-95,6)	(4,3)	(-86,15)	(-96,16)	
L1D 92>	(-93,67)	(-1,13)	(-96,35)	(-94,101)	(0,1)	(-91,59)	(-92,34)	(-4,30)	(-8,25)	(1,28)	(2,42)	(42,5)	(3,12)	(-95,15)	(-2,12)	(-202,4)	
L1D 93>	(-1,20)	(41,2)	(-94,95)	(-93,10)	(-2,14)	(-85,13)	(0,1)	(-92,22)	(-95,18)	(-9,14)	(-96,28)	(-6,8)	(-84,3)	(-5,10)	(42,3)	(1,8)	
L1D 94>	(-1,20)	(-94,47)	(32,10)	(-2,15)	(-95,5)	(-93,66)	(-85,5)	(-92,13)	(-10,4)	(10,7)	(-6,1)	(42,1)	(-120,3)	(-3,13)	(-5,4)	(-97,18)	
L1D 95>	(0,1)	(-94,82)	(-96,7)	(-71,7)	(-2,17)	(-92,24)	(-93,3)	(7,2)	(-85,15)	(-90,2)	(-88,5)	(-11,7)	(4,4)	(-84,3)	(-10,3)	(-9,2)	
L1D 96>	(-94,93)	(-2,6)	(-97,19)	(-1,21)	(-92,26)	(-4,24)	(-95,22)	(-85,22)	(4,2)	(-12,24)	(-90,3)	(25,38)	(-11,5)	(-93,22)	(2,16)	(-3,6)	
L1D 97>	(-93,15)	(-94,91)	(-86,13)	(-4,4)	(-98,6)	(-90,1)	(-92,21)	(-12,9)	(-1,20)	(-70,2)	(-3,22)	(-96,4)	(-95,8)	(-2,23)	(-13,8)	(-85,18)	
L1D 98>	(-14,67)	(-94,104)	(-4,2)	(-92,36)	(-99,5)	(-5,6)	(-6,3)	(-3,25)	(-85,34)	(-2,9)	(-97,19)	(-93,9)	(0,1)	(-1,11)	(-90,1)	(-7,27)	
L1D 99>	(-15,21)	(-94,79)	(-4,5)	(-14,1)	(-92,39)	(-98,7)	(-86,2)	(17,40)	(-3,8)	(-97,3)	(-85,6)	(-69,1)	(-95,8)	(-2,7)	(-1,12)	(-222,1)	
L1D 100>	(-94,83)	(1,1)	(-99,110)	(-92,39)	(-85,25)	(-13,7)	(-86,4)	(-16,7)	(-5,4)	(-1,7)	(-96,3)	(-7,2)	(-95,2)	(-222,2)	(-15,8)	(-2,13)	
L1D 101>	(-85,55)	(-94,103)	(-6,45)	(-2,8)	(-92,111)	(-8,16)	(-86,8)	(-17,59)	(-16,1)	(10,27)	(32,54)	(-14,9)	(1,3)	(-1,17)	(3,9)	(-3,6)	
L1D 102>	(-94,82)	(-7,4)	(-14,1)	(-92,26)	(-93,1)	(-18,16)	(-11,1)	(-99,1)	(-2,7)	(-85,19)	(-103,2)	(-16,2)	(-17,6)	(-3,6)	(-1,10)	(-15,2)	
L1D 103>	(-19,8)	(-94,105)	(-3,1)	(-92,44)	(-101,8)	(5,1)	(-102,5)	(-18,7)	(-1,8)	(18,1)	(-8,2)	(-10,8)	(-86,7)	(-2,11)	(93,11)	(-104,14)	
L1D 104>	(-85,12)	(-9,20)	(-94,92)	(-92,58)	(-20,15)	(-103,1)	(-93,5)	(-11,5)	(-134,3)	(-113,5)	(-17,17)	(-1,24)	(-8,5)	(-19,26)	(-84,4)	(-18,12)	
L1D 105>	(-21,8)	(-94,68)	(-92,28)	(-10,7)	(-1,4)	(-42,29)	(-95,1)	(-83,11)	(-106,8)	(-12,5)	(-55,2)	(-134,1)	(-19,3)	(-20,8)	(6,6)	(95,4)	
L1D 106>	(-22,18)	(-94,36)	(-92,70)	(-13,6)	(-83,6)	(-80,12)	(93,10)	(-11,27)	(-85,4)	(-222,1)	(-86,7)	(-82,3)	(-107,11)	(-20,13)	(-21,31)	(-56,2)	
L1D 107>	(-94,22)	(-12,15)	(-15,30)	(-92,55)	(-14,4)	(-83,13)	(-108,5)	(-80,29)	(-57,13)	(-22,21)	(11,1)	(-84,9)	(92,22)	(-23,4)	(-85,11)	(-105,4)	
L1D 108>	(-94,55)	(-92,25)	(-93,5)	(-81,6)	(-109,33)	(-13,4)	(-80,4)	(-23,8)	(-83,5)	(-84,6)	(-105,14)	(-24,7)	(-11,3)	(225,1)	(-82,16)	(-107,2)	
L1D 109>	(-110,53)	(-6,3)	(-92,16)	(-94,27)	(-42,12)	(-82,8)	(-1,8)	(-14,2)	(-81,2)	(-16,3)	(-25,1)	(-59,6)	(1,1)	(-83,30)	(-60,1)	(-86,27)	
L1D 110>	(-26,10)	(-15,4)	(-94,22)	(-92,9)	(-85,13)	(-1,9)	(-111,60)	(-86,18)	(-88,6)	(-84,29)	(-87,1)	(-42,25)	(-109,18)	(-25,5)	(93,7)	(-44,6)	
L1D 111>	(-92,15)	(1,3)	(-1,28)	(-94,13)	(-84,14)	(-83,7)	(-64,1)	(-86,11)	(-85,16)	(-42,38)	(-112,12)	(-18,6)	(-61,12)	(-43,9)	(95,11)	(92,10)	
L1D 112>	(1,8)	(-94,6)	(-42,37)	(-113,14)	(-83,1)	(-95,2)	(-92,9)	(-19,5)	(-64,2)	(-63,3)	(-62,8)	(-46,11)	(-41,5)	(-2,11)	(-20,13)	(96,2)	
L1D 113>	(-18,2)	(-92,13)	(-83,15)	(-42,25)	(-114,7)	(2,2)	(-39,6)	(-94,73)	(1,2)	(-67,1)	(-46,2)	(-66,4)	(-41,3)	(3,1)	(-65,5)	(93,5)	
L1D 114>	(-81,73)	(-83,5)	(1,3)	(-42,16)	(-70,1)	(90,1)	(-88,1)	(-92,5)	(-21,3)	(-65,2)	(-66,1)	(20,3)	(-100,25)	(-44,5)	(-40,5)	(-84,1)	
L1D 115>	(-82,69)	(-92,3)	(1,3)	(-116,6)	(-94,2)	(-42,10)	(-86,4)	(-56,19)	(-83,9)	(-1,26)	(-74,0)	(-91,1)	(-20,1)	(-65,5)	(94,4)	(2,2)	
L1D 116>	(94,2)	(-67,3)	(-1,11)	(-83,10)	(-42,26)	(93,8)	(90,2)	(-43,9)	(-91,5)	(0,7)	(-20,8)	(-56,23)	(-66,5)	(-117,5)	(1,25)	(-92,1)	
L1D 117>	(93,2)	(1,2)	(-71,8)	(15,3)	(-42,15)	(-1,4)	(-86,1)	(-92,4)	(-24,4)	(-70,3)	(-56,37)	(-69,8)	(-45,1)	(-2,1)	(-116,43)	(-74,7)	
L1D 118>	(-68,3)	(-117,6)	(-119,6)	(-92,8)	(-42,12)	(-100,6)	(-56,11)	(-70,1)	(-83,3)	(89,6)	(-10,1)	(-85,3)	(-75,14)	(16,7)	(101,2)	(-69,12)	
L1D 119>	(-1,13)	(8,6)	(-42,23)	(-56,30)	(-54,2)	(-85,5)	(-83,12)	(1,2)	(102,1)	(-76,22)	(-84,14)	(-118,44)	(81,2)	(-82,13)	(9,5)	(-70,6)	
L1D 120>	(-71,2)	(-27,5)	(-29,17)	(-28,6)	(-42,14)	(-83,9)	(-2,11)	(-82,1)	(-56,16)	(1,7)	(-91,1)	(-1,6)	(7,1)	(8,8)	(-8,2)	(14,1)	
L1D 121>	(-83,7)	(-120,33)	(-88,1)	(-1,5)	(-56,35)	(-42,2)	(-82,4)	(1,2)	(-75,3)	(-90,1)	(-2,13)	(-25,12)	(-3,5)	(-122,6)	(-71,48)	(233,1)	
L1D 122>	(-121,74)	(96,1)	(-96,0)	(82,0)	(-41,0)	(99,0)	(-42,0)	(-81,1)	(-75,3)	(-76,0)	(5,0)	(-83,0)	(24,0)	(14,1)	(-57,0)	(-56,2)	
[...]
L1D 454>	(1,0)	(1,0)	(1,0)	(1,0)	(1,0)	(1,0)	(1,0)	(1,0)	(1,0)	(1,0)	(1,0)	(1,0)	(1,0)	(1,0)	(1,0)	(1,0)	
L1D 455>	(1,0)	(1,0)	(1,0)	(1,0)	(1,0)	(1,0)	(1,0)	(1,0)	(1,0)	(1,0)	(1,0)	(1,0)	(1,0)	(1,0)	(1,0)	(1,0)	
L1D 456>	(1,0)	(1,0)	(1,0)	(1,0)	(1,0)	(1,0)	(1,0)	(1,0)	(1,0)	(1,0)	(1,0)	(1,0)	(1,0)	(1,0)	(1,0)	(1,0)	
L1D 457>	(1,0)	(1,0)	(1,0)	(1,0)	(1,0)	(1,0)	(1,0)	(1,0)	(1,0)	(1,0)	(1,0)	(1,0)	(1,0)	(1,0)	(1,0)	(1,0)	
L1D 458>	(1,0)	(1,0)	(1,0)	(1,0)	(1,0)	(1,0)	(1,0)	(1,0)	(1,0)	(1,0)	(1,0)	(1,0)	(1,0)	(1,0)	(1,0)	(1,0)	
L1D 459>	(1,0)	(1,0)	(1,0)	(1,0)	(1,0)	(1,0)	(1,0)	(1,0)	(1,0)	(1,0)	(1,0)	(1,0)	(1,0)	(1,0)	(1,0)	(1,0)	
L1D 460>	(1,0)	(1,0)	(1,0)	(1,0)	(1,0)	(1,0)	(1,0)	(1,0)	(1,0)	(1,0)	(1,0)	(1,0)	(1,0)	(1,0)	(1,0)	(1,0)	
L1D 461>	(1,0)	(1,0)	(1,0)	(1,0)	(1,0)	(1,0)	(1,0)	(1,0)	(1,0)	(1,0)	(1,0)	(1,0)	(1,0)	(1,0)	(1,0)	(1,0)	
L1D 462>	(1,0)	(1,0)	(1,0)	(1,0)	(1,0)	(1,0)	(1,0)	(1,0)	(1,0)	(1,0)	(1,0)	(1,0)	(1,0)	(1,0)	(1,0)	(1,0)	
L1D 463>	(1,0)	(1,0)	(1,0)	(1,0)	(1,0)	(1,0)	(1,0)	(1,0)	(1,0)	(1,0)	(1,0)	(1,0)	(1,0)	(1,0)	(1,0)	(1,0)	
L1D 464>	(1,0)	(1,0)	(1,0)	(1,0)	(1,0)	(1,0)	(1,0)	(1,0)	(1,0)	(1,0)	(1,0)	(1,0)	(1,0)	(1,0)	(1,0)	(1,0)	
L1D 465>	(1,0)	(1,0)	(1,0)	(1,0)	(1,0)	(1,0)	(1,0)	(1,0)	(1,0)	(1,0)	(1,0)	(1,0)	(1,0)	(1,0)	(1,0)	(1,0)	
L1D 466>	(1,0)	(1,0)	(1,0)	(1,0)	(1,0)	(1,0)	(1,0)	(1,0)	(1,0)	(1,0)	(1,0)	(1,0)	(1,0)	(1,0)	(1,0)	(1,0)	
L1D 467>	(1,0)	(1,0)	(1,0)	(1,0)	(1,0)	(1,0)	(1,0)	(1,0)	(1,0)	(1,0)	(1,0)	(1,0)	(1,0)	(1,0)	(1,0)	(1,0)	
L1D 468>	(1,0)	(1,0)	(1,0)	(1,0)	(1,0)	(1,0)	(1,0)	(1,0)	(1,0)	(1,0)	(1,0)	(1,0)	(1,0)	(1,0)	(1,0)	(1,0)	
L1D 469>	(1,0)	(1,0)	(1,0)	(1,0)	(1,0)	(1,0)	(1,0)	(1,0)	(1,0)	(1,0)	(1,0)	(1,0)	(1,0)	(1,0)	(1,0)	(1,0)	
L1D 470>	(1,0)	(1,0)	(1,0)	(1,0)	(1,0)	(1,0)	(1,0)	(1,0)	(1,0)	(1,0)	(1,0)	(1,0)	(1,0)	(1,0)	(1,0)	(1,0)	
L1D 471>	(1,0)	(1,0)	(1,0)	(1,0)	(1,0)	(1,0)	(1,0)	(1,0)	(1,0)	(1,0)	(1,0)	(1,0)	(1,0)	(1,0)	(1,0)	(1,0)	
L1D 472>	(1,0)	(1,0)	(1,0)	(1,0)	(1,0)	(1,0)	(1,0)	(1,0)	(1,0)	(1,0)	(1,0)	(1,0)	(1,0)	(1,0)	(1,0)	(1,0)	
L1D 473>	(1,0)	(1,0)	(1,0)	(1,0)	(1,0)	(1,0)	(1,0)	(1,0)	(1,0)	(1,0)	(1,0)	(1,0)	(1,0)	(1,0)	(1,0)	(1,0)	
L1D 474>	(1,0)	(1,0)	(1,0)	(1,0)	(1,0)	(1,0)	(1,0)	(1,0)	(1,0)	(1,0)	(1,0)	(1,0)	(1,0)	(1,0)	(1,0)	(1,0)	
L1D 475>	(1,0)	(1,0)	(1,0)	(1,0)	(1,0)	(1,0)	(1,0)	(1,0)	(1,0)	(1,0)	(1,0)	(1,0)	(1,0)	(1,0)	(1,0)	(1,0)	
L1D 476>	(1,0)	(1,0)	(1,0)	(1,0)	(1,0)	(1,0)	(1,0)	(1,0)	(1,0)	(1,0)	(1,0)	(1,0)	(1,0)	(1,0)	(1,0)	(1,0)	
L1D 477>	(1,0)	(1,0)	(1,0)	(1,0)	(1,0)	(1,0)	(1,0)	(1,0)	(1,0)	(1,0)	(1,0)	(1,0)	(1,0)	(1,0)	(1,0)	(1,0)	
L1D 478>	(1,0)	(1,0)	(1,0)	(1,0)	(1,0)	(1,0)	(1,0)	(1,0)	(1,0)	(1,0)	(1,0)	(1,0)	(1,0)	(1,0)	(1,0)	(1,0)	
L1D 479>	(1,0)	(1,0)	(1,0)	(1,0)	(1,0)	(1,0)	(1,0)	(1,0)	(1,0)	(1,0)	(1,0)	(1,0)	(1,0)	(1,0)	(1,0)	(1,0)	
L1D 480>	(1,0)	(1,0)	(1,0)	(1,0)	(1,0)	(1,0)	(1,0)	(1,0)	(1,0)	(1,0)	(1,0)	(1,0)	(1,0)	(1,0)	(1,0)	(1,0)	
L1D 481>	(1,0)	(1,0)	(1,0)	(1,0)	(1,0)	(1,0)	(1,0)	(1,0)	(1,0)	(1,0)	(1,0)	(1,0)	(1,0)	(1,0)	(1,0)	(1,0)	
L1D 482>	(1,0)	(1,0)	(1,0)	(1,0)	(1,0)	(1,0)	(1,0)	(1,0)	(1,0)	(1,0)	(1,0)	(1,0)	(1,0)	(1,0)	(1,0)	(1,0)	
L1D 483>	(1,0)	(1,0)	(1,0)	(1,0)	(1,0)	(1,0)	(1,0)	(1,0)	(1,0)	(1,0)	(1,0)	(1,0)	(1,0)	(1,0)	(1,0)	(1,0)	
L1D 484>	(1,0)	(1,0)	(1,0)	(1,0)	(1,0)	(1,0)	(1,0)	(1,0)	(1,0)	(1,0)	(1,0)	(1,0)	(1,0)	(1,0)	(1,0)	(1,0)	
L1D 485>	(1,0)	(1,0)	(1,0)	(1,0)	(1,0)	(1,0)	(1,0)	(1,0)	(1,0)	(1,0)	(1,0)	(1,0)	(1,0)	(1,0)	(1,0)	(1,0)	
L1D 486>	(1,0)	(1,0)	(1,0)	(1,0)	(1,0)	(1,0)	(1,0)	(1,0)	(1,0)	(1,0)	(1,0)	(1,0)	(1,0)	(1,0)	(1,0)	(1,0)	
L1D 487>	(1,0)	(1,0)	(1,0)	(1,0)	(1,0)	(1,0)	(1,0)	(1,0)	(1,0)	(1,0)	(1,0)	(1,0)	(1,0)	(1,0)	(1,0)	(1,0)	
L1D 488>	(1,0)	(1,0)	(1,0)	(1,0)	(1,0)	(1,0)	(1,0)	(1,0)	(1,0)	(1,0)	(1,0)	(1,0)	(1,0)	(1,0)	(1,0)	(1,0)	
L1D 489>	(1,0)	(1,0)	(1,0)	(1,0)	(1,0)	(1,0)	(1,0)	(1,0)	(1,0)	(1,0)	(1,0)	(1,0)	(1,0)	(1,0)	(1,0)	(1,0)	
L1D 490>	(1,0)	(1,0)	(1,0)	(1,0)	(1,0)	(1,0)	(1,0)	(1,0)	(1,0)	(1,0)	(1,0)	(1,0)	(1,0)	(1,0)	(1,0)	(1,0)	
L1D 491>	(1,0)	(1,0)	(1,0)	(1,0)	(1,0)	(1,0)	(1,0)	(1,0)	(1,0)	(1,0)	(1,0)	(1,0)	(1,0)	(1,0)	(1,0)	(1,0)	
L1D 492>	(1,0)	(1,0)	(1,0)	(1,0)	(1,0)	(1,0)	(1,0)	(1,0)	(1,0)	(1,0)	(1,0)	(1,0)	(1,0)	(1,0)	(1,0)	(1,0)	
L1D 493>	(1,0)	(1,0)	(1,0)	(1,0)	(1,0)	(1,0)	(1,0)	(1,0)	(1,0)	(1,0)	(1,0)	(1,0)	(1,0)	(1,0)	(1,0)	(1,0)	
L1D 494>	(1,0)	(1,0)	(1,0)	(1,0)	(1,0)	(1,0)	(1,0)	(1,0)	(1,0)	(1,0)	(1,0)	(1,0)	(1,0)	(1,0)	(1,0)	(1,0)	
L1D 495>	(1,0)	(1,0)	(1,0)	(1,0)	(1,0)	(1,0)	(1,0)	(1,0)	(1,0)	(1,0)	(1,0)	(1,0)	(1,0)	(1,0)	(1,0)	(1,0)	
L1D 496>	(1,0)	(1,0)	(1,0)	(1,0)	(1,0)	(1,0)	(1,0)	(1,0)	(1,0)	(1,0)	(1,0)	(1,0)	(1,0)	(1,0)	(1,0)	(1,0)	
L1D 497>	(1,0)	(1,0)	(1,0)	(1,0)	(1,0)	(1,0)	(1,0)	(1,0)	(1,0)	(1,0)	(1,0)	(1,0)	(1,0)	(1,0)	(1,0)	(1,0)	
L1D 498>	(1,0)	(1,0)	(1,0)	(1,0)	(1,0)	(1,0)	(1,0)	(1,0)	(1,0)	(1,0)	(1,0)	(1,0)	(1,0)	(1,0)	(1,0)	(1,0)	
L1D 499>	(1,0)	(1,0)	(1,0)	(1,0)	(1,0)	(1,0)	(1,0)	(1,0)	(1,0)	(1,0)	(1,0)	(1,0)	(1,0)	(1,0)	(1,0)	(1,0)	
L1D 500>	(1,0)	(1,0)	(1,0)	(1,0)	(1,0)	(1,0)	(1,0)	(1,0)	(1,0)	(1,0)	(1,0)	(1,0)	(1,0)	(1,0)	(1,0)	(1,0)	
L1D 501>	(1,0)	(1,0)	(1,0)	(1,0)	(1,0)	(1,0)	(1,0)	(1,0)	(1,0)	(1,0)	(1,0)	(1,0)	(1,0)	(1,0)	(1,0)	(1,0)	
L1D 502>	(1,0)	(1,0)	(1,0)	(1,0)	(1,0)	(1,0)	(1,0)	(1,0)	(1,0)	(1,0)	(1,0)	(1,0)	(1,0)	(1,0)	(1,0)	(1,0)	
L1D 503>	(1,0)	(1,0)	(1,0)	(1,0)	(1,0)	(1,0)	(1,0)	(1,0)	(1,0)	(1,0)	(1,0)	(1,0)	(1,0)	(1,0)	(1,0)	(1,0)	
L1D 504>	(1,0)	(1,0)	(1,0)	(1,0)	(1,0)	(1,0)	(1,0)	(1,0)	(1,0)	(1,0)	(1,0)	(1,0)	(1,0)	(1,0)	(1,0)	(1,0)	
L1D 505>	(1,0)	(1,0)	(1,0)	(1,0)	(1,0)	(1,0)	(1,0)	(1,0)	(1,0)	(1,0)	(1,0)	(1,0)	(1,0)	(1,0)	(1,0)	(1,0)	
L1D 506>	(1,0)	(1,0)	(1,0)	(1,0)	(1,0)	(1,0)	(1,0)	(1,0)	(1,0)	(1,0)	(1,0)	(1,0)	(1,0)	(1,0)	(1,0)	(1,0)	
L1D 507>	(1,0)	(1,0)	(1,0)	(1,0)	(1,0)	(1,0)	(1,0)	(1,0)	(1,0)	(1,0)	(1,0)	(1,0)	(1,0)	(1,0)	(1,0)	(1,0)	
L1D 508>	(1,0)	(1,0)	(1,0)	(1,0)	(1,0)	(1,0)	(1,0)	(1,0)	(1,0)	(1,0)	(1,0)	(1,0)	(1,0)	(1,0)	(1,0)	(1,0)	
L1D 509>	(1,0)	(1,0)	(1,0)	(1,0)	(1,0)	(1,0)	(1,0)	(1,0)	(1,0)	(1,0)	(1,0)	(1,0)	(1,0)	(1,0)	(1,0)	(1,0)	
L1D 510>	(1,0)	(1,0)	(1,0)	(1,0)	(1,0)	(1,0)	(1,0)	(1,0)	(1,0)	(1,0)	(1,0)	(1,0)	(1,0)	(1,0)	(1,0)	(1,0)	
L1D 511>	(1,0)	(1,0)	(1,0)	(1,0)	(1,0)	(1,0)	(1,0)	(1,0)	(1,0)	(1,0)	(1,0)	(1,0)	(1,0)	(1,0)	(1,0)	(1,0)	

L2C -64>	(1,17)	(10,2)	(-13,2)	(5,1)	(-10,1)	(-27,2)	(4,1)	(-2,1)	(11,2)	(2,1)	(-20,1)	(6,1)	(-1,1)	(-11,1)	(13,1)	(16,1)	
L2C -63>	(1,0)	(1,0)	(1,0)	(1,0)	(1,0)	(1,0)	(1,0)	(1,0)	(1,0)	(1,0)	(1,0)	(1,0)	(1,0)	(1,0)	(1,0)	(1,0)	
L2C -62>	(1,0)	(1,0)	(1,0)	(1,0)	(1,0)	(1,0)	(1,0)	(1,0)	(1,0)	(1,0)	(1,0)	(1,0)	(1,0)	(1,0)	(1,0)	(1,0)	
L2C -61>	(1,1)	(1,0)	(1,0)	(1,0)	(1,0)	(1,0)	(1,0)	(1,0)	(1,0)	(1,0)	(1,0)	(1,0)	(1,0)	(1,0)	(1,0)	(1,0)	
L2C -60>	(1,0)	(1,0)	(1,0)	(1,0)	(1,0)	(1,0)	(1,0)	(1,0)	(1,0)	(1,0)	(1,0)	(1,0)	(1,0)	(1,0)	(1,0)	(1,0)	
L2C -59>	(1,0)	(1,0)	(1,0)	(1,0)	(1,0)	(1,0)	(1,0)	(1,0)	(1,0)	(1,0)	(1,0)	(1,0)	(1,0)	(1,0)	(1,0)	(1,0)	
L2C -58>	(1,0)	(1,0)	(1,0)	(1,0)	(1,0)	(1,0)	(1,0)	(1,0)	(1,0)	(1,0)	(1,0)	(1,0)	(1,0)	(1,0)	(1,0)	(1,0)	
L2C -57>	(1,0)	(1,0)	(1,0)	(1,0)	(1,0)	(1,0)	(1,0)	(1,0)	(1,0)	(1,0)	(1,0)	(1,0)	(1,0)	(1,0)	(1,0)	(1,0)	
L2C -56>	(1,0)	(1,0)	(1,0)	(1,0)	(1,0)	(1,0)	(1,0)	(1,0)	(1,0)	(1,0)	(1,0)	(1,0)	(1,0)	(1,0)	(1,0)	(1,0)	
L2C -55>	(1,1)	(1,0)	(1,0)	(1,0)	(1,0)	(1,0)	(1,0)	(1,0)	(1,0)	(1,0)	(1,0)	(1,0)	(1,0)	(1,0)	(1,0)	(1,0)	
L2C -54>	(1,0)	(1,0)	(1,0)	(1,0)	(1,0)	(1,0)	(1,0)	(1,0)	(1,0)	(1,0)	(1,0)	(1,0)	(1,0)	(1,0)	(1,0)	(1,0)	
L2C -53>	(1,0)	(1,0)	(1,0)	(1,0)	(1,0)	(1,0)	(1,0)	(1,0)	(1,0)	(1,0)	(1,0)	(1,0)	(1,0)	(1,0)	(1,0)	(1,0)	
L2C -52>	(1,0)	(1,0)	(1,0)	(1,0)	(1,0)	(1,0)	(1,0)	(1,0)	(1,0)	(1,0)	(1,0)	(1,0)	(1,0)	(1,0)	(1,0)	(1,0)	
L2C -51>	(1,0)	(1,0)	(1,0)	(1,0)	(1,0)	(1,0)	(1,0)	(1,0)	(1,0)	(1,0)	(1,0)	(1,0)	(1,0)	(1,0)	(1,0)	(1,0)	
L2C -50>	(1,0)	(1,0)	(1,0)	(1,0)	(1,0)	(1,0)	(1,0)	(1,0)	(1,0)	(1,0)	(1,0)	(1,0)	(1,0)	(1,0)	(1,0)	(1,0)	
L2C -49>	(1,0)	(1,0)	(1,0)	(1,0)	(1,0)	(1,0)	(1,0)	(1,0)	(1,0)	(1,0)	(1,0)	(1,0)	(1,0)	(1,0)	(1,0)	(1,0)	
L2C -48>	(1,0)	(1,0)	(1,0)	(1,0)	(1,0)	(1,0)	(1,0)	(1,0)	(1,0)	(1,0)	(1,0)	(1,0)	(1,0)	(1,0)	(1,0)	(1,0)	
L2C -47>	(1,0)	(1,0)	(1,0)	(1,0)	(1,0)	(1,0)	(1,0)	(1,0)	(1,0)	(1,0)	(1,0)	(1,0)	(1,0)	(1,0)	(1,0)	(1,0)	
L2C -46>	(1,0)	(1,0)	(1,0)	(1,0)	(1,0)	(1,0)	(1,0)	(1,0)	(1,0)	(1,0)	(1,0)	(1,0)	(1,0)	(1,0)	(1,0)	(1,0)	
L2C -45>	(1,0)	(1,0)	(1,0)	(1,0)	(1,0)	(1,0)	(1,0)	(1,0)	(1,0)	(1,0)	(1,0)	(1,0)	(1,0)	(1,0)	(1,0)	(1,0)	
L2C -44>	(1,0)	(1,0)	(1,0)	(1,0)	(1,0)	(1,0)	(1,0)	(1,0)	(1,0)	(1,0)	(1,0)	(1,0)	(1,0)	(1,0)	(1,0)	(1,0)	
L2C -43>	(1,0)	(1,0)	(1,0)	(1,0)	(1,0)	(1,0)	(1,0)	(1,0)	(1,0)	(1,0)	(1,0)	(1,0)	(1,0)	(1,0)	(1,0)	(1,0)	
L2C -42>	(1,0)	(1,0)	(1,0)	(1,0)	(1,0)	(1,0)	(1,0)	(1,0)	(1,0)	(1,0)	(1,0)	(1,0)	(1,0)	(1,0)	(1,0)	(1,0)	
L2C -41>	(1,0)	(1,0)	(1,0)	(1,0)	(1,0)	(1,0)	(1,0)	(1,0)	(1,0)	(1,0)	(1,0)	(1,0)	(1,0)	(1,0)	(1,0)	(1,0)	
L2C -40>	(1,0)	(1,0)	(1,0)	(1,0)	(1,0)	(1,0)	(1,0)	(1,0)	(1,0)	(1,0)	(1,0)	(1,0)	(1,0)	(1,0)	(1,0)	(1,0)	
L2C -39>	(1,0)	(1,0)	(1,0)	(1,0)	(1,0)	(1,0)	(1,0)	(1,0)	(1,0)	(1,0)	(1,0)	(1,0)	(1,0)	(1,0)	(1,0)	(1,0)	
L2C -38>	(1,0)	(1,0)	(1,0)	(1,0)	(1,0)	(1,0)	(1,0)	(1,0)	(1,0)	(1,0)	(1,0)	(1,0)	(1,0)	(1,0)	(1,0)	(1,0)	
L2C -37>	(1,0)	(1,0)	(1,0)	(1,0)	(1,0)	(1,0)	(1,0)	(1,0)	(1,0)	(1,0)	(1,0)	(1,0)	(1,0)	(1,0)	(1,0)	(1,0)	
L2C -36>	(1,0)	(1,0)	(1,0)	(1,0)	(1,0)	(1,0)	(1,0)	(1,0)	(1,0)	(1,0)	(1,0)	(1,0)	(1,0)	(1,0)	(1,0)	(1,0)	
L2C -35>	(3,1)	(1,0)	(1,0)	(1,0)	(1,0)	(1,0)	(1,0)	(1,0)	(1,0)	(1,0)	(1,0)	(1,0)	(1,0)	(1,0)	(1,0)	(1,0)	
L2C -34>	(1,0)	(1,0)	(1,0)	(1,0)	(1,0)	(1,0)	(1,0)	(1,0)	(1,0)	(1,0)	(1,0)	(1,0)	(1,0)	(1,0)	(1,0)	(1,0)	
L2C -33>	(1,0)	(1,0)	(1,0)	(1,0)	(1,0)	(1,0)	(1,0)	(1,0)	(1,0)	(1,0)	(1,0)	(1,0)	(1,0)	(1,0)	(1,0)	(1,0)	
L2C -32>	(11,1)	(-2,1)	(1,0)	(1,0)	(1,0)	(1,0)	(1,0)	(1,0)	(1,0)	(1,0)	(1,0)	(1,0)	(1,0)	(1,0)	(1,0)	(1,0)	
L2C -31>	(1,1)	(1,0)	(1,0)	(1,0)	(1,0)	(1,0)	(1,0)	(1,0)	(1,0)	(1,0)	(1,0)	(1,0)	(1,0)	(1,0)	(1,0)	(1,0)	
L2C -30>	(4,1)	(1,0)	(1,0)	(1,0)	(1,0)	(1,0)	(1,0)	(1,0)	(1,0)	(1,0)	(1,0)	(1,0)	(1,0)	(1,0)	(1,0)	(1,0)	
L2C -29>	(1,0)	(1,0)	(1,0)	(1,0)	(1,0)	(1,0)	(1,0)	(1,0)	(1,0)	(1,0)	(1,0)	(1,0)	(1,0)	(1,0)	(1,0)	(1,0)	
L2C -28>	(1,0)	(1,0)	(1,0)	(1,0)	(1,0)	(1,0)	(1,0)	(1,0)	(1,0)	(1,0)	(1,0)	(1,0)	(1,0)	(1,0)	(1,0)	(1,0)	
L2C -27>	(4,1)	(1,2)	(29,1)	(1,0)	(1,0)	(1,0)	(1,0)	(1,0)	(1,0)	(1,0)	(1,0)	(1,0)	(1,0)	(1,0)	(1,0)	(1,0)	
L2C -26>	(1,0)	(1,0)	(1,0)	(1,0)	(1,0)	(1,0)	(1,0)	(1,0)	(1,0)	(1,0)	(1,0)	(1,0)	(1,0)	(1,0)	(1,0)	(1,0)	
L2C -25>	(1,1)	(1,0)	(1,0)	(1,0)	(1,0)	(1,0)	(1,0)	(1,0)	(1,0)	(1,0)	(1,0)	(1,0)	(1,0)	(1,0)	(1,0)	(1,0)	
L2C -24>	(1,1)	(1,0)	(1,0)	(1,0)	(1,0)	(1,0)	(1,0)	(1,0)	(1,0)	(1,0)	(1,0)	(1,0)	(1,0)	(1,0)	(1,0)	(1,0)	
L2C -23>	(1,1)	(1,0)	(1,0)	(1,0)	(1,0)	(1,0)	(1,0)	(1,0)	(1,0)	(1,0)	(1,0)	(1,0)	(1,0)	(1,0)	(1,0)	(1,0)	
L2C -22>	(1,2)	(-1,1)	(1,0)	(1,0)	(1,0)	(1,0)	(1,0)	(1,0)	(1,0)	(1,0)	(1,0)	(1,0)	(1,0)	(1,0)	(1,0)	(1,0)	
L2C -21>	(1,1)	(1,0)	(1,0)	(1,0)	(1,0)	(1,0)	(1,0)	(1,0)	(1,0)	(1,0)	(1,0)	(1,0)	(1,0)	(1,0)	(1,0)	(1,0)	
L2C -20>	(-1,1)	(1,0)	(1,0)	(1,0)	(1,0)	(1,0)	(1,0)	(1,0)	(1,0)	(1,0)	(1,0)	(1,0)	(1,0)	(1,0)	(1,0)	(1,0)	
L2C -19>	(25,1)	(1,0)	(1,0)	(1,0)	(1,0)	(1,0)	(1,0)	(1,0)	(1,0)	(1,0)	(1,0)	(1,0)	(1,0)	(1,0)	(1,0)	(1,0)	
L2C -18>	(1,1)	(1,0)	(1,0)	(1,0)	(1,0)	(1,0)	(1,0)	(1,0)	(1,0)	(1,0)	(1,0)	(1,0)	(1,0)	(1,0)	(1,0)	(1,0)	
L2C -17>	(1,0)	(1,0)	(1,0)	(1,0)	(1,0)	(1,0)	(1,0)	(1,0)	(1,0)	(1,0)	(1,0)	(1,0)	(1,0)	(1,0)	(1,0)	(1,0)	
L2C -16>	(17,1)	(1,0)	(1,0)	(1,0)	(1,0)	(1,0)	(1,0)	(1,0)	(1,0)	(1,0)	(1,0)	(1,0)	(1,0)	(1,0)	(1,0)	(1,0)	
L2C -15>	(1,0)	(1,0)	(1,0)	(1,0)	(1,0)	(1,0)	(1,0)	(1,0)	(1,0)	(1,0)	(1,0)	(1,0)	(1,0)	(1,0)	(1,0)	(1,0)	
L2C -14>	(4,1)	(1,1)	(1,0)	(1,0)	(1,0)	(1,0)	(1,0)	(1,0)	(1,0)	(1,0)	(1,0)	(1,0)	(1,0)	(1,0)	(1,0)	(1,0)	
L2C -13>	(14,1)	(1,0)	(1,0)	(1,0)	(1,0)	(1,0)	(1,0)	(1,0)	(1,0)	(1,0)	(1,0)	(1,0)	(1,0)	(1,0)	(1,0)	(1,0)	
L2C -12>	(1,0)	(1,0)	(1,0)	(1,0)	(1,0)	(1,0)	(1,0)	(1,0)	(1,0)	(1,0)	(1,0)	(1,0)	(1,0)	(1,0)	(1,0)	(1,0)	
L2C -11>	(10,2)	(-1,1)	(1,0)	(1,0)	(1,0)	(1,0)	(1,0)	(1,0)	(1,0)	(1,0)	(1,0)	(1,0)	(1,0)	(1,0)	(1,0)	(1,0)	
L2C -10>	(-15,1)	(1,1)	(1,0)	(1,0)	(1,0)	(1,0)	(1,0)	(1,0)	(1,0)	(1,0)	(1,0)	(1,0)	(1,0)	(1,0)	(1,0)	(1,0)	
L2C -9>	(-1,1)	(1,0)	(1,0)	(1,0)	(1,0)	(1,0)	(1,0)	(1,0)	(1,0)	(1,0)	(1,0)	(1,0)	(1,0)	(1,0)	(1,0)	(1,0)	
L2C -8>	(32,1)	(-14,1)	(-1,3)	(1,0)	(1,0)	(1,0)	(1,0)	(1,0)	(1,0)	(1,0)	(1,0)	(1,0)	(1,0)	(1,0)	(1,0)	(1,0)	
L2C -7>	(3,1)	(-1,1)	(-32,1)	(1,1)	(1,0)	(1,0)	(1,0)	(1,0)	(1,0)	(1,0)	(1,0)	(1,0)	(1,0)	(1,0)	(1,0)	(1,0)	
L2C -6>	(1,0)	(1,0)	(1,0)	(1,0)	(1,0)	(1,0)	(1,0)	(1,0)	(1,0)	(1,0)	(1,0)	(1,0)	(1,0)	(1,0)	(1,0)	(1,0)	
L2C -5>	(7,1)	(4,1)	(1,0)	(1,0)	(1,0)	(1,0)	(1,0)	(1,0)	(1,0)	(1,0)	(1,0)	(1,0)	(1,0)	(1,0)	(1,0)	(1,0)	
L2C -4>	(1,0)	(1,0)	(1,0)	(1,0)	(1,0)	(1,0)	(1,0)	(1,0)	(1,0)	(1,0)	(1,0)	(1,0)	(1,0)	(1,0)	(1,0)	(1,0)	
L2C -3>	(4,1)	(1,1)	(-1,1)	(1,0)	(1,0)	(1,0)	(1,0)	(1,0)	(1,0)	(1,0)	(1,0)	(1,0)	(1,0)	(1,0)	(1,0)	(1,0)	
L2C -2>	(3,1)	(-7,1)	(-23,1)	(1,0)	(1,0)	(1,0)	(1,0)	(1,0)	(1,0)	(1,0)	(1,0)	(1,0)	(1,0)	(1,0)	(1,0)	(1,0)	
L2C -1>	(11,2)	(-61,1)	(39,1)	(-11,1)	(-1,9)	(3,2)	(15,1)	(2,2)	(17,1)	(-2,1)	(36,1)	(30,1)	(1,0)	(1,0)	(1,0)	(1,0)	
L2C 0>	(1,0)	(1,0)	(1,0)	(1,0)	(1,0)	(1,0)	(1,0)	(1,0)	(1,0)	(1,0)	(1,0)	(1,0)	(1,0)	(1,0)	(1,0)	(1,0)	
L2C 1>	(-6,1)	(1,135)	(42,1)	(55,1)	(3,3)	(-27,2)	(7,2)	(-22,2)	(16,1)	(22,1)	(-7,3)	(15,1)	(-3,1)	(2,5)	(20,1)	(13,1)	
L2C 2>	(1,10)	(-10,1)	(-5,1)	(-1,1)	(9,1)	(1,0)	(1,0)	(1,0)	(1,0)	(1,0)	(1,0)	(1,0)	(1,0)	(1,0)	(1,0)	(1,0)	
L2C 3>	(1,3)	(-1,2)	(5,1)	(1,0)	(1,0)	(1,0)	(1,0)	(1,0)	(1,0)	(1,0)	(1,0)	(1,0)	(1,0)	(1,0)	(1,0)	(1,0)	
L2C 4>	(11,1)	(-3,2)	(22,1)	(2,1)	(6,1)	(5,1)	(-22,1)	(1,1)	(31,1)	(1,0)	(1,0)	(1,0)	(1,0)	(1,0)	(1,0)	(1,0)	
L2C 5>	(4,1)	(7,1)	(-8,1)	(1,3)	(1,0)	(1,0)	(1,0)	(1,0)	(1,0)	(1,0)	(1,0)	(1,0)	(1,0)	(1,0)	(1,0)	(1,0)	
L2C 6>	(11,1)	(2,1)	(1,1)	(1,0)	(1,0)	(1,0)	(1,0)	(1,0)	(1,0)	(1,0)	(1,0)	(1,0)	(1,0)	(1,0)	(1,0)	(1,0)	
L2C 7>	(1,2)	(-2,1)	(1,0)	(1,0)	(1,0)	(1,0)	(1,0)	(1,0)	(1,0)	(1,0)	(1,0)	(1,0)	(1,0)	(1,0)	(1,0)	(1,0)	
L2C 8>	(1,0)	(1,0)	(1,0)	(1,0)	(1,0)	(1,0)	(1,0)	(1,0)	(1,0)	(1,0)	(1,0)	(1,0)	(1,0)	(1,0)	(1,0)	(1,0)	
L2C 9>	(1,2)	(-1,1)	(1,0)	(1,0)	(1,0)	(1,0)	(1,0)	(1,0)	(1,0)	(1,0)	(1,0)	(1,0)	(1,0)	(1,0)	(1,0)	(1,0)	
L2C 10>	(-11,1)	(-20,1)	(5,1)	(1,0)	(1,0)	(1,0)	(1,0)	(1,0)	(1,0)	(1,0)	(1,0)	(1,0)	(1,0)	(1,0)	(1,0)	(1,0)	
L2C 11>	(-1,2)	(1,2)	(1,0)	(1,0)	(1,0)	(1,0)	(1,0)	(1,0)	(1,0)	(1,0)	(1,0)	(1,0)	(1,0)	(1,0)	(1,0)	(1,0)	
L2C 12>	(1,0)	(1,0)	(1,0)	(1,0)	(1,0)	(1,0)	(1,0)	(1,0)	(1,0)	(1,0)	(1,0)	(1,0)	(1,0)	(1,0)	(1,0)	(1,0)	
L2C 13>	(2,2)	(1,0)	(1,0)	(1,0)	(1,0)	(1,0)	(1,0)	(1,0)	(1,0)	(1,0)	(1,0)	(1,0)	(1,0)	(1,0)	(1,0)	(1,0)	
L2C 14>	(4,1)	(1,0)	(1,0)	(1,0)	(1,0)	(1,0)	(1,0)	(1,0)	(1,0)	(1,0)	(1,0)	(1,0)	(1,0)	(1,0)	(1,0)	(1,0)	
L2C 15>	(1,2)	(1,0)	(1,0)	(1,0)	(1,0)	(1,0)	(1,0)	(1,0)	(1,0)	(1,0)	(1,0)	(1,0)	(1,0)	(1,0)	(1,0)	(1,0)	
L2C 16>	(-35,1)	(2,1)	(1,0)	(1,0)	(1,0)	(1,0)	(1,0)	(1,0)	(1,0)	(1,0)	(1,0)	(1,0)	(1,0)	(1,0)	(1,0)	(1,0)	
L2C 17>	(-1,1)	(2,1)	(1,1)	(1,0)	(1,0)	(1,0)	(1,0)	(1,0)	(1,0)	(1,0)	(1,0)	(1,0)	(1,0)	(1,0)	(1,0)	(1,0)	
L2C 18>	(6,1)	(1,0)	(1,0)	(1,0)	(1,0)	(1,0)	(1,0)	(1,0)	(1,0)	(1,0)	(1,0)	(1,0)	(1,0)	(1,0)	(1,0)	(1,0)	
L2C 19>	(1,1)	(1,0)	(1,0)	(1,0)	(1,0)	(1,0)	(1,0)	(1,0)	(1,0)	(1,0)	(1,0)	(1,0)	(1,0)	(1,0)	(1,0)	(1,0)	
L2C 20>	(-19,1)	(1,0)	(1,0)	(1,0)	(1,0)	(1,0)	(1,0)	(1,0)	(1,0)	(1,0)	(1,0)	(1,0)	(1,0)	(1,0)	(1,0)	(1,0)	
L2C 21>	(1,0)	(1,0)	(1,0)	(1,0)	(1,0)	(1,0)	(1,0)	(1,0)	(1,0)	(1,0)	(1,0)	(1,0)	(1,0)	(1,0)	(1,0)	(1,0)	
L2C 22>	(1,1)	(28,1)	(1,0)	(1,0)	(1,0)	(1,0)	(1,0)	(1,0)	(1,0)	(1,0)	(1,0)	(1,0)	(1,0)	(1,0)	(1,0)	(1,0)	
L2C 23>	(1,0)	(1,0)	(1,0)	(1,0)	(1,0)	(1,0)	(1,0)	(1,0)	(1,0)	(1,0)	(1,0)	(1,0)	(1,0)	(1,0)	(1,0)	(1,0)	
L2C 24>	(1,0)	(1,0)	(1,0)	(1,0)	(1,0)	(1,0)	(1,0)	(1,0)	(1,0)	(1,0)	(1,0)	(1,0)	(1,0)	(1,0)	(1,0)	(1,0)	
L2C 25>	(-24,1)	(1,0)	(1,0)	(1,0)	(1,0)	(1,0)	(1,0)	(1,0)	(1,0)	(1,0)	(1,0)	(1,0)	(1,0)	(1,0)	(1,0)	(1,0)	
L2C 26>	(1,0)	(1,0)	(1,0)	(1,0)	(1,0)	(1,0)	(1,0)	(1,0)	(1,0)	(1,0)	(1,0)	(1,0)	(1,0)	(1,0)	(1,0)	(1,0)	
L2C 27>	(1,0)	(1,0)	(1,0)	(1,0)	(1,0)	(1,0)	(1,0)	(1,0)	(1,0)	(1,0)	(1,0)	(1,0)	(1,0)	(1,0)	(1,0)	(1,0)	
L2C 28>	(1,1)	(1,0)	(1,0)	(1,0)	(1,0)	(1,0)	(1,0)	(1,0)	(1,0)	(1,0)	(1,0)	(1,0)	(1,0)	(1,0)	(1,0)	(1,0)	
L2C 29>	(-30,1)	(1,0)	(1,0)	(1,0)	(1,0)	(1,0)	(1,0)	(1,0)	(1,0)	(1,0)	(1,0)	(1,0)	(1,0)	(1,0)	(1,0)	(1,0)	
L2C 30>	(1,0)	(1,0)	(1,0)	(1,0)	(1,0)	(1,0)	(1,0)	(1,0)	(1,0)	(1,0)	(1,0)	(1,0)	(1,0)	(1,0)	(1,0)	(1,0)	
L2C 31>	(1,1)	(-32,1)	(1,0)	(1,0)	(1,0)	(1,0)	(1,0)	(1,0)	(1,0)	(1,0)	(1,0)	(1,0)	(1,0)	(1,0)	(1,0)	(1,0)	
L2C 32>	(-55,1)	(2,1)	(1,0)	(1,0)	(1,0)	(1,0)	(1,0)	(1,0)	(1,0)	(1,0)	(1,0)	(1,0)	(1,0)	(1,0)	(1,0)	(1,0)	
L2C 33>	(1,0)	(1,0)	(1,0)	(1,0)	(1,0)	(1,0)	(1,0)	(1,0)	(1,0)	(1,0)	(1,0)	(1,0)	(1,0)	(1,0)	(1,0)	(1,0)	
L2C 34>	(1,0)	(1,0)	(1,0)	(1,0)	(1,0)	(1,0)	(1,0)	(1,0)	(1,0)	(1,0)	(1,0)	(1,0)	(1,0)	(1,0)	(1,0)	(1,0)	
L2C 35>	(1,0)	(1,0)	(1,0)	(1,0)	(1,0)	(1,0)	(1,0)	(1,0)	(1,0)	(1,0)	(1,0)	(1,0)	(1,0)	(1,0)	(1,0)	(1,0)	
L2C 36>	(-8,1)	(1,0)	(1,0)	(1,0)	(1,0)	(1,0)	(1,0)	(1,0)	(1,0)	(1,0)	(1,0)	(1,0)	(1,0)	(1,0)	(1,0)	(1,0)	
L2C 37>	(1,0)	(1,0)	(1,0)	(1,0)	(1,0)	(1,0)	(1,0)	(1,0)	(1,0)	(1,0)	(1,0)	(1,0)	(1,0)	(1,0)	(1,0)	(1,0)	
L2C 38>	(1,0)	(1,0)	(1,0)	(1,0)	(1,0)	(1,0)	(1,0)	(1,0)	(1,0)	(1,0)	(1,0)	(1,0)	(1,0)	(1,0)	(1,0)	(1,0)	
L2C 39>	(-5,1)	(1,0)	(1,0)	(1,0)	(1,0)	(1,0)	(1,0)	(1,0)	(1,0)	(1,0)	(1,0)	(1,0)	(1,0)	(1,0)	(1,0)	(1,0)	
L2C 40>	(1,0)	(1,0)	(1,0)	(1,0)	(1,0)	(1,0)	(1,0)	(1,0)	(1,0)	(1,0)	(1,0)	(1,0)	(1,0)	(1,0)	(1,0)	(1,0)	
L2C 41>	(1,1)	(1,0)	(1,0)	(1,0)	(1,0)	(1,0)	(1,0)	(1,0)	(1,0)	(1,0)	(1,0)	(1,0)	(1,0)	(1,0)	(1,0)	(1,0)	
L2C 42>	(1,1)	(1,0)	(1,0)	(1,0)	(1,0)	(1,0)	(1,0)	(1,0)	(1,0)	(1,0)	(1,0)	(1,0)	(1,0)	(1,0)	(1,0)	(1,0)	
L2C 43>	(1,0)	(1,0)	(1,0)	(1,0)	(1,0)	(1,0)	(1,0)	(1,0)	(1,0)	(1,0)	(1,0)	(1,0)	(1,0)	(1,0)	(1,0)	(1,0)	
L2C 44>	(1,0)	(1,0)	(1,0)	(1,0)	(1,0)	(1,0)	(1,0)	(1,0)	(1,0)	(1,0)	(1,0)	(1,0)	(1,0)	(1,0)	(1,0)	(1,0)	
L2C 45>	(1,0)	(1,0)	(1,0)	(1,0)	(1,0)	(1,0)	(1,0)	(1,0)	(1,0)	(1,0)	(1,0)	(1,0)	(1,0)	(1,0)	(1,0)	(1,0)	
L2C 46>	(1,0)	(1,0)	(1,0)	(1,0)	(1,0)	(1,0)	(1,0)	(1,0)	(1,0)	(1,0)	(1,0)	(1,0)	(1,0)	(1,0)	(1,0)	(1,0)	
L2C 47>	(1,0)	(1,0)	(1,0)	(1,0)	(1,0)	(1,0)	(1,0)	(1,0)	(1,0)	(1,0)	(1,0)	(1,0)	(1,0)	(1,0)	(1,0)	(1,0)	
L2C 48>	(1,0)	(1,0)	(1,0)	(1,0)	(1,0)	(1,0)	(1,0)	(1,0)	(1,0)	(1,0)	(1,0)	(1,0)	(1,0)	(1,0)	(1,0)	(1,0)	
L2C 49>	(1,0)	(1,0)	(1,0)	(1,0)	(1,0)	(1,0)	(1,0)	(1,0)	(1,0)	(1,0)	(1,0)	(1,0)	(1,0)	(1,0)	(1,0)	(1,0)	
L2C 50>	(1,0)	(1,0)	(1,0)	(1,0)	(1,0)	(1,0)	(1,0)	(1,0)	(1,0)	(1,0)	(1,0)	(1,0)	(1,0)	(1,0)	(1,0)	(1,0)	
L2C 51>	(1,0)	(1,0)	(1,0)	(1,0)	(1,0)	(1,0)	(1,0)	(1,0)	(1,0)	(1,0)	(1,0)	(1,0)	(1,0)	(1,0)	(1,0)	(1,0)	
L2C 52>	(1,0)	(1,0)	(1,0)	(1,0)	(1,0)	(1,0)	(1,0)	(1,0)	(1,0)	(1,0)	(1,0)	(1,0)	(1,0)	(1,0)	(1,0)	(1,0)	
L2C 53>	(1,0)	(1,0)	(1,0)	(1,0)	(1,0)	(1,0)	(1,0)	(1,0)	(1,0)	(1,0)	(1,0)	(1,0)	(1,0)	(1,0)	(1,0)	(1,0)	
L2C 54>	(1,0)	(1,0)	(1,0)	(1,0)	(1,0)	(1,0)	(1,0)	(1,0)	(1,0)	(1,0)	(1,0)	(1,0)	(1,0)	(1,0)	(1,0)	(1,0)	
L2C 55>	(-1,1)	(1,0)	(1,0)	(1,0)	(1,0)	(1,0)	(1,0)	(1,0)	(1,0)	(1,0)	(1,0)	(1,0)	(1,0)	(1,0)	(1,0)	(1,0)	
L2C 56>	(1,0)	(1,0)	(1,0)	(1,0)	(1,0)	(1,0)	(1,0)	(1,0)	(1,0)	(1,0)	(1,0)	(1,0)	(1,0)	(1,0)	(1,0)	(1,0)	
L2C 57>	(1,0)	(1,0)	(1,0)	(1,0)	(1,0)	(1,0)	(1,0)	(1,0)	(1,0)	(1,0)	(1,0)	(1,0)	(1,0)	(1,0)	(1,0)	(1,0)	
L2C 58>	(1,0)	(1,0)	(1,0)	(1,0)	(1,0)	(1,0)	(1,0)	(1,0)	(1,0)	(1,0)	(1,0)	(1,0)	(1,0)	(1,0)	(1,0)	(1,0)	
L2C 59>	(1,0)	(1,0)	(1,0)	(1,0)	(1,0)	(1,0)	(1,0)	(1,0)	(1,0)	(1,0)	(1,0)	(1,0)	(1,0)	(1,0)	(1,0)	(1,0)	
L2C 60>	(1,0)	(1,0)	(1,0)	(1,0)	(1,0)	(1,0)	(1,0)	(1,0)	(1,0)	(1,0)	(1,0)	(1,0)	(1,0)	(1,0)	(1,0)	(1,0)	
L2C 61>	(1,0)	(1,0)	(1,0)	(1,0)	(1,0)	(1,0)	(1,0)	(1,0)	(1,0)	(1,0)	(1,0)	(1,0)	(1,0)	(1,0)	(1,0)	(1,0)	
L2C 62>	(1,0)	(1,0)	(1,0)	(1,0)	(1,0)	(1,0)	(1,0)	(1,0)	(1,0)	(1,0)	(1,0)	(1,0)	(1,0)	(1,0)	(1,0)	(1,0)	
L2C 63>	(1,0)	(1,0)	(1,0)	(1,0)	(1,0)	(1,0)	(1,0)	(1,0)	(1,0)	(1,0)	(1,0)	(1,0)	(1,0)	(1,0)	(1,0)	(1,0)	

DRAM Statistics
 CHANNEL 0
 RQ ROW_BUFFER_HIT:        134  ROW_BUFFER_MISS:         30
 DBUS_CONGESTED:         63
 WQ ROW_BUFFER_HIT:          0  ROW_BUFFER_MISS:          0  FULL:          0

 AVG_CONGESTED_CYCLE: 6
