
*** ChampSim Multicore Out-of-Order Simulator ***

Warmup Instructions: 1000000
Simulation Instructions: 10000000
Number of CPUs: 1
LLC sets: 2048
LLC ways: 16
Off-chip DRAM Size: 4096 MB Channels: 1 Width: 64-bit Data Rate: 3200 MT/s

CPU 0 runs /home/virtualcse/Data-Prefetching/ChampSim/dpc3_traces/607.cactuBSSN_s-2421B.champsimtrace.xz
Ultra pref. initializing...
Ultra pref. initialized
Ultra pref. initializing...
Ultra pref. initialized

Warmup complete CPU 0 instructions: 1000001 cycles: 481449 (Simulation time: 0 hr 0 min 2 sec) 

Heartbeat CPU 0 instructions: 10000001 cycles: 7569586 heartbeat IPC: 1.32108 cumulative IPC: 1.26973 (Simulation time: 0 hr 0 min 18 sec) 
Finished CPU 0 instructions: 10000000 cycles: 7894763 cumulative IPC: 1.26666 (Simulation time: 0 hr 0 min 20 sec) 

CPU 0 Branch Prediction Accuracy: 99.5557% MPKI: 0.0307 Average ROB Occupancy at Mispredict: 18.6026

ChampSim completed all CPUs

Region of Interest Statistics

CPU 0 cumulative IPC: 1.26666 instructions: 10000000 cycles: 7894763
L1D TOTAL     ACCESS:    5994631  HIT:    4833587  MISS:    1161044
L1D LOAD      ACCESS:    3163935  HIT:    2473154  MISS:     690781
L1D RFO       ACCESS:     794183  HIT:     729345  MISS:      64838
L1D PREFETCH  ACCESS:    2036513  HIT:    1631088  MISS:     405425
L1D WRITEBACK ACCESS:          0  HIT:          0  MISS:          0
L1D PREFETCH  REQUESTED:   22546667  ISSUED:    9724029  USEFUL:      32737  USELESS:     406417
L1D AVERAGE MISS LATENCY: 22.174 cycles
L1I TOTAL     ACCESS:     968213  HIT:     708115  MISS:     260098
L1I LOAD      ACCESS:     968213  HIT:     708115  MISS:     260098
L1I RFO       ACCESS:          0  HIT:          0  MISS:          0
L1I PREFETCH  ACCESS:          0  HIT:          0  MISS:          0
L1I WRITEBACK ACCESS:          0  HIT:          0  MISS:          0
L1I PREFETCH  REQUESTED:          0  ISSUED:          0  USEFUL:          0  USELESS:          0
L1I AVERAGE MISS LATENCY: 13.1237 cycles
L2C TOTAL     ACCESS:    4636324  HIT:    4576698  MISS:      59626
L2C LOAD      ACCESS:     932140  HIT:     930366  MISS:       1774
L2C RFO       ACCESS:      64448  HIT:      58556  MISS:       5892
L2C PREFETCH  ACCESS:    3566852  HIT:    3514894  MISS:      51958
L2C WRITEBACK ACCESS:      72884  HIT:      72882  MISS:          2
L2C PREFETCH  REQUESTED:   18647861  ISSUED:    5527275  USEFUL:      51261  USELESS:       7926
L2C AVERAGE MISS LATENCY: 156.108 cycles
LLC TOTAL     ACCESS:      65605  HIT:      38772  MISS:      26833
LLC LOAD      ACCESS:       1768  HIT:        898  MISS:        870
LLC RFO       ACCESS:       5892  HIT:          3  MISS:       5889
LLC PREFETCH  ACCESS:      51965  HIT:      31891  MISS:      20074
LLC WRITEBACK ACCESS:       5980  HIT:       5980  MISS:          0
LLC PREFETCH  REQUESTED:          0  ISSUED:          0  USEFUL:        541  USELESS:       3041
LLC AVERAGE MISS LATENCY: 278.288 cycles
Major fault: 0 Minor fault: 687

L1D -512>	(-2,0)	(0,1)	(3,0)	(1,98)	(-7,0)	(-1,1)	(-172,1)	(172,0)	(344,0)	(171,0)	(-17,0)	(1,0)	(1,0)	(1,0)	(1,0)	(1,0)	
L1D -511>	(1,0)	(1,0)	(1,0)	(1,0)	(1,0)	(1,0)	(1,0)	(1,0)	(1,0)	(1,0)	(1,0)	(1,0)	(1,0)	(1,0)	(1,0)	(1,0)	
L1D -510>	(1,0)	(1,0)	(1,0)	(1,0)	(1,0)	(1,0)	(1,0)	(1,0)	(1,0)	(1,0)	(1,0)	(1,0)	(1,0)	(1,0)	(1,0)	(1,0)	
L1D -509>	(1,0)	(1,0)	(1,0)	(1,0)	(1,0)	(1,0)	(1,0)	(1,0)	(1,0)	(1,0)	(1,0)	(1,0)	(1,0)	(1,0)	(1,0)	(1,0)	
L1D -508>	(1,0)	(1,0)	(1,0)	(1,0)	(1,0)	(1,0)	(1,0)	(1,0)	(1,0)	(1,0)	(1,0)	(1,0)	(1,0)	(1,0)	(1,0)	(1,0)	
L1D -507>	(1,0)	(1,0)	(1,0)	(1,0)	(1,0)	(1,0)	(1,0)	(1,0)	(1,0)	(1,0)	(1,0)	(1,0)	(1,0)	(1,0)	(1,0)	(1,0)	
L1D -506>	(1,0)	(1,0)	(1,0)	(1,0)	(1,0)	(1,0)	(1,0)	(1,0)	(1,0)	(1,0)	(1,0)	(1,0)	(1,0)	(1,0)	(1,0)	(1,0)	
L1D -505>	(1,0)	(1,0)	(1,0)	(1,0)	(1,0)	(1,0)	(1,0)	(1,0)	(1,0)	(1,0)	(1,0)	(1,0)	(1,0)	(1,0)	(1,0)	(1,0)	
L1D -504>	(1,0)	(1,0)	(1,0)	(1,0)	(1,0)	(1,0)	(1,0)	(1,0)	(1,0)	(1,0)	(1,0)	(1,0)	(1,0)	(1,0)	(1,0)	(1,0)	
L1D -503>	(1,0)	(1,0)	(1,0)	(1,0)	(1,0)	(1,0)	(1,0)	(1,0)	(1,0)	(1,0)	(1,0)	(1,0)	(1,0)	(1,0)	(1,0)	(1,0)	
L1D -502>	(1,0)	(1,0)	(1,0)	(1,0)	(1,0)	(1,0)	(1,0)	(1,0)	(1,0)	(1,0)	(1,0)	(1,0)	(1,0)	(1,0)	(1,0)	(1,0)	
L1D -501>	(1,0)	(1,0)	(1,0)	(1,0)	(1,0)	(1,0)	(1,0)	(1,0)	(1,0)	(1,0)	(1,0)	(1,0)	(1,0)	(1,0)	(1,0)	(1,0)	
L1D -500>	(1,0)	(1,0)	(1,0)	(1,0)	(1,0)	(1,0)	(1,0)	(1,0)	(1,0)	(1,0)	(1,0)	(1,0)	(1,0)	(1,0)	(1,0)	(1,0)	
L1D -499>	(1,0)	(1,0)	(1,0)	(1,0)	(1,0)	(1,0)	(1,0)	(1,0)	(1,0)	(1,0)	(1,0)	(1,0)	(1,0)	(1,0)	(1,0)	(1,0)	
L1D -498>	(1,0)	(1,0)	(1,0)	(1,0)	(1,0)	(1,0)	(1,0)	(1,0)	(1,0)	(1,0)	(1,0)	(1,0)	(1,0)	(1,0)	(1,0)	(1,0)	
L1D -497>	(1,0)	(1,0)	(1,0)	(1,0)	(1,0)	(1,0)	(1,0)	(1,0)	(1,0)	(1,0)	(1,0)	(1,0)	(1,0)	(1,0)	(1,0)	(1,0)	
L1D -496>	(1,0)	(1,0)	(1,0)	(1,0)	(1,0)	(1,0)	(1,0)	(1,0)	(1,0)	(1,0)	(1,0)	(1,0)	(1,0)	(1,0)	(1,0)	(1,0)	
L1D -495>	(1,0)	(1,0)	(1,0)	(1,0)	(1,0)	(1,0)	(1,0)	(1,0)	(1,0)	(1,0)	(1,0)	(1,0)	(1,0)	(1,0)	(1,0)	(1,0)	
L1D -494>	(1,0)	(1,0)	(1,0)	(1,0)	(1,0)	(1,0)	(1,0)	(1,0)	(1,0)	(1,0)	(1,0)	(1,0)	(1,0)	(1,0)	(1,0)	(1,0)	
L1D -493>	(1,0)	(1,0)	(1,0)	(1,0)	(1,0)	(1,0)	(1,0)	(1,0)	(1,0)	(1,0)	(1,0)	(1,0)	(1,0)	(1,0)	(1,0)	(1,0)	
L1D -492>	(1,0)	(1,0)	(1,0)	(1,0)	(1,0)	(1,0)	(1,0)	(1,0)	(1,0)	(1,0)	(1,0)	(1,0)	(1,0)	(1,0)	(1,0)	(1,0)	
L1D -491>	(1,0)	(1,0)	(1,0)	(1,0)	(1,0)	(1,0)	(1,0)	(1,0)	(1,0)	(1,0)	(1,0)	(1,0)	(1,0)	(1,0)	(1,0)	(1,0)	
L1D -490>	(1,0)	(1,0)	(1,0)	(1,0)	(1,0)	(1,0)	(1,0)	(1,0)	(1,0)	(1,0)	(1,0)	(1,0)	(1,0)	(1,0)	(1,0)	(1,0)	
L1D -489>	(1,0)	(1,0)	(1,0)	(1,0)	(1,0)	(1,0)	(1,0)	(1,0)	(1,0)	(1,0)	(1,0)	(1,0)	(1,0)	(1,0)	(1,0)	(1,0)	
L1D -488>	(1,0)	(1,0)	(1,0)	(1,0)	(1,0)	(1,0)	(1,0)	(1,0)	(1,0)	(1,0)	(1,0)	(1,0)	(1,0)	(1,0)	(1,0)	(1,0)	
L1D -487>	(1,0)	(1,0)	(1,0)	(1,0)	(1,0)	(1,0)	(1,0)	(1,0)	(1,0)	(1,0)	(1,0)	(1,0)	(1,0)	(1,0)	(1,0)	(1,0)	
L1D -486>	(1,0)	(1,0)	(1,0)	(1,0)	(1,0)	(1,0)	(1,0)	(1,0)	(1,0)	(1,0)	(1,0)	(1,0)	(1,0)	(1,0)	(1,0)	(1,0)	
L1D -485>	(1,0)	(1,0)	(1,0)	(1,0)	(1,0)	(1,0)	(1,0)	(1,0)	(1,0)	(1,0)	(1,0)	(1,0)	(1,0)	(1,0)	(1,0)	(1,0)	
L1D -484>	(1,0)	(1,0)	(1,0)	(1,0)	(1,0)	(1,0)	(1,0)	(1,0)	(1,0)	(1,0)	(1,0)	(1,0)	(1,0)	(1,0)	(1,0)	(1,0)	
L1D -483>	(1,0)	(1,0)	(1,0)	(1,0)	(1,0)	(1,0)	(1,0)	(1,0)	(1,0)	(1,0)	(1,0)	(1,0)	(1,0)	(1,0)	(1,0)	(1,0)	
L1D -482>	(1,0)	(1,0)	(1,0)	(1,0)	(1,0)	(1,0)	(1,0)	(1,0)	(1,0)	(1,0)	(1,0)	(1,0)	(1,0)	(1,0)	(1,0)	(1,0)	
L1D -481>	(1,0)	(1,0)	(1,0)	(1,0)	(1,0)	(1,0)	(1,0)	(1,0)	(1,0)	(1,0)	(1,0)	(1,0)	(1,0)	(1,0)	(1,0)	(1,0)	
L1D -480>	(1,0)	(1,0)	(1,0)	(1,0)	(1,0)	(1,0)	(1,0)	(1,0)	(1,0)	(1,0)	(1,0)	(1,0)	(1,0)	(1,0)	(1,0)	(1,0)	
L1D -479>	(1,0)	(1,0)	(1,0)	(1,0)	(1,0)	(1,0)	(1,0)	(1,0)	(1,0)	(1,0)	(1,0)	(1,0)	(1,0)	(1,0)	(1,0)	(1,0)	
L1D -478>	(1,0)	(1,0)	(1,0)	(1,0)	(1,0)	(1,0)	(1,0)	(1,0)	(1,0)	(1,0)	(1,0)	(1,0)	(1,0)	(1,0)	(1,0)	(1,0)	
L1D -477>	(1,0)	(1,0)	(1,0)	(1,0)	(1,0)	(1,0)	(1,0)	(1,0)	(1,0)	(1,0)	(1,0)	(1,0)	(1,0)	(1,0)	(1,0)	(1,0)	
L1D -476>	(1,0)	(1,0)	(1,0)	(1,0)	(1,0)	(1,0)	(1,0)	(1,0)	(1,0)	(1,0)	(1,0)	(1,0)	(1,0)	(1,0)	(1,0)	(1,0)	
L1D -475>	(1,0)	(1,0)	(1,0)	(1,0)	(1,0)	(1,0)	(1,0)	(1,0)	(1,0)	(1,0)	(1,0)	(1,0)	(1,0)	(1,0)	(1,0)	(1,0)	
L1D -474>	(1,0)	(1,0)	(1,0)	(1,0)	(1,0)	(1,0)	(1,0)	(1,0)	(1,0)	(1,0)	(1,0)	(1,0)	(1,0)	(1,0)	(1,0)	(1,0)	
L1D -473>	(1,0)	(1,0)	(1,0)	(1,0)	(1,0)	(1,0)	(1,0)	(1,0)	(1,0)	(1,0)	(1,0)	(1,0)	(1,0)	(1,0)	(1,0)	(1,0)	
L1D -472>	(1,0)	(1,0)	(1,0)	(1,0)	(1,0)	(1,0)	(1,0)	(1,0)	(1,0)	(1,0)	(1,0)	(1,0)	(1,0)	(1,0)	(1,0)	(1,0)	
L1D -471>	(1,0)	(1,0)	(1,0)	(1,0)	(1,0)	(1,0)	(1,0)	(1,0)	(1,0)	(1,0)	(1,0)	(1,0)	(1,0)	(1,0)	(1,0)	(1,0)	
L1D -470>	(1,0)	(1,0)	(1,0)	(1,0)	(1,0)	(1,0)	(1,0)	(1,0)	(1,0)	(1,0)	(1,0)	(1,0)	(1,0)	(1,0)	(1,0)	(1,0)	
L1D -469>	(1,0)	(1,0)	(1,0)	(1,0)	(1,0)	(1,0)	(1,0)	(1,0)	(1,0)	(1,0)	(1,0)	(1,0)	(1,0)	(1,0)	(1,0)	(1,0)	
L1D -468>	(1,0)	(1,0)	(1,0)	(1,0)	(1,0)	(1,0)	(1,0)	(1,0)	(1,0)	(1,0)	(1,0)	(1,0)	(1,0)	(1,0)	(1,0)	(1,0)	
L1D -467>	(1,0)	(1,0)	(1,0)	(1,0)	(1,0)	(1,0)	(1,0)	(1,0)	(1,0)	(1,0)	(1,0)	(1,0)	(1,0)	(1,0)	(1,0)	(1,0)	
L1D -466>	(1,0)	(1,0)	(1,0)	(1,0)	(1,0)	(1,0)	(1,0)	(1,0)	(1,0)	(1,0)	(1,0)	(1,0)	(1,0)	(1,0)	(1,0)	(1,0)	
L1D -465>	(1,0)	(1,0)	(1,0)	(1,0)	(1,0)	(1,0)	(1,0)	(1,0)	(1,0)	(1,0)	(1,0)	(1,0)	(1,0)	(1,0)	(1,0)	(1,0)	
L1D -464>	(1,0)	(1,0)	(1,0)	(1,0)	(1,0)	(1,0)	(1,0)	(1,0)	(1,0)	(1,0)	(1,0)	(1,0)	(1,0)	(1,0)	(1,0)	(1,0)	
L1D -463>	(1,0)	(1,0)	(1,0)	(1,0)	(1,0)	(1,0)	(1,0)	(1,0)	(1,0)	(1,0)	(1,0)	(1,0)	(1,0)	(1,0)	(1,0)	(1,0)	
L1D -462>	(1,0)	(1,0)	(1,0)	(1,0)	(1,0)	(1,0)	(1,0)	(1,0)	(1,0)	(1,0)	(1,0)	(1,0)	(1,0)	(1,0)	(1,0)	(1,0)	
L1D -461>	(1,0)	(1,0)	(1,0)	(1,0)	(1,0)	(1,0)	(1,0)	(1,0)	(1,0)	(1,0)	(1,0)	(1,0)	(1,0)	(1,0)	(1,0)	(1,0)	
L1D -460>	(1,0)	(1,0)	(1,0)	(1,0)	(1,0)	(1,0)	(1,0)	(1,0)	(1,0)	(1,0)	(1,0)	(1,0)	(1,0)	(1,0)	(1,0)	(1,0)	
L1D -459>	(1,0)	(1,0)	(1,0)	(1,0)	(1,0)	(1,0)	(1,0)	(1,0)	(1,0)	(1,0)	(1,0)	(1,0)	(1,0)	(1,0)	(1,0)	(1,0)	
L1D -458>	(1,0)	(1,0)	(1,0)	(1,0)	(1,0)	(1,0)	(1,0)	(1,0)	(1,0)	(1,0)	(1,0)	(1,0)	(1,0)	(1,0)	(1,0)	(1,0)	
L1D -457>	(1,0)	(1,0)	(1,0)	(1,0)	(1,0)	(1,0)	(1,0)	(1,0)	(1,0)	(1,0)	(1,0)	(1,0)	(1,0)	(1,0)	(1,0)	(1,0)	
L1D -456>	(1,0)	(1,0)	(1,0)	(1,0)	(1,0)	(1,0)	(1,0)	(1,0)	(1,0)	(1,0)	(1,0)	(1,0)	(1,0)	(1,0)	(1,0)	(1,0)	
L1D -455>	(1,0)	(1,0)	(1,0)	(1,0)	(1,0)	(1,0)	(1,0)	(1,0)	(1,0)	(1,0)	(1,0)	(1,0)	(1,0)	(1,0)	(1,0)	(1,0)	
L1D -454>	(1,0)	(1,0)	(1,0)	(1,0)	(1,0)	(1,0)	(1,0)	(1,0)	(1,0)	(1,0)	(1,0)	(1,0)	(1,0)	(1,0)	(1,0)	(1,0)	
L1D -453>	(1,0)	(1,0)	(1,0)	(1,0)	(1,0)	(1,0)	(1,0)	(1,0)	(1,0)	(1,0)	(1,0)	(1,0)	(1,0)	(1,0)	(1,0)	(1,0)	
L1D -452>	(1,0)	(1,0)	(1,0)	(1,0)	(1,0)	(1,0)	(1,0)	(1,0)	(1,0)	(1,0)	(1,0)	(1,0)	(1,0)	(1,0)	(1,0)	(1,0)	
L1D -451>	(1,0)	(1,0)	(1,0)	(1,0)	(1,0)	(1,0)	(1,0)	(1,0)	(1,0)	(1,0)	(1,0)	(1,0)	(1,0)	(1,0)	(1,0)	(1,0)	
L1D -450>	(1,0)	(1,0)	(1,0)	(1,0)	(1,0)	(1,0)	(1,0)	(1,0)	(1,0)	(1,0)	(1,0)	(1,0)	(1,0)	(1,0)	(1,0)	(1,0)	
L1D -449>	(1,0)	(1,0)	(1,0)	(1,0)	(1,0)	(1,0)	(1,0)	(1,0)	(1,0)	(1,0)	(1,0)	(1,0)	(1,0)	(1,0)	(1,0)	(1,0)	
L1D -448>	(1,0)	(1,0)	(1,0)	(1,0)	(1,0)	(1,0)	(1,0)	(1,0)	(1,0)	(1,0)	(1,0)	(1,0)	(1,0)	(1,0)	(1,0)	(1,0)	
L1D -447>	(1,0)	(1,0)	(1,0)	(1,0)	(1,0)	(1,0)	(1,0)	(1,0)	(1,0)	(1,0)	(1,0)	(1,0)	(1,0)	(1,0)	(1,0)	(1,0)	
L1D -446>	(1,0)	(1,0)	(1,0)	(1,0)	(1,0)	(1,0)	(1,0)	(1,0)	(1,0)	(1,0)	(1,0)	(1,0)	(1,0)	(1,0)	(1,0)	(1,0)	
L1D -445>	(1,0)	(1,0)	(1,0)	(1,0)	(1,0)	(1,0)	(1,0)	(1,0)	(1,0)	(1,0)	(1,0)	(1,0)	(1,0)	(1,0)	(1,0)	(1,0)	
L1D -444>	(1,0)	(1,0)	(1,0)	(1,0)	(1,0)	(1,0)	(1,0)	(1,0)	(1,0)	(1,0)	(1,0)	(1,0)	(1,0)	(1,0)	(1,0)	(1,0)	
L1D -443>	(1,0)	(1,0)	(1,0)	(1,0)	(1,0)	(1,0)	(1,0)	(1,0)	(1,0)	(1,0)	(1,0)	(1,0)	(1,0)	(1,0)	(1,0)	(1,0)	
L1D -442>	(1,0)	(1,0)	(1,0)	(1,0)	(1,0)	(1,0)	(1,0)	(1,0)	(1,0)	(1,0)	(1,0)	(1,0)	(1,0)	(1,0)	(1,0)	(1,0)	
L1D -441>	(-1,1)	(1,0)	(1,0)	(1,0)	(1,0)	(1,0)	(1,0)	(1,0)	(1,0)	(1,0)	(1,0)	(1,0)	(1,0)	(1,0)	(1,0)	(1,0)	
L1D -440>	(1,0)	(1,0)	(1,0)	(1,0)	(1,0)	(1,0)	(1,0)	(1,0)	(1,0)	(1,0)	(1,0)	(1,0)	(1,0)	(1,0)	(1,0)	(1,0)	
L1D -439>	(1,0)	(1,0)	(1,0)	(1,0)	(1,0)	(1,0)	(1,0)	(1,0)	(1,0)	(1,0)	(1,0)	(1,0)	(1,0)	(1,0)	(1,0)	(1,0)	
L1D -438>	(1,0)	(1,0)	(1,0)	(1,0)	(1,0)	(1,0)	(1,0)	(1,0)	(1,0)	(1,0)	(1,0)	(1,0)	(1,0)	(1,0)	(1,0)	(1,0)	
L1D -437>	(1,0)	(1,0)	(1,0)	(1,0)	(1,0)	(1,0)	(1,0)	(1,0)	(1,0)	(1,0)	(1,0)	(1,0)	(1,0)	(1,0)	(1,0)	(1,0)	
L1D -436>	(436,1)	(1,0)	(1,0)	(1,0)	(1,0)	(1,0)	(1,0)	(1,0)	(1,0)	(1,0)	(1,0)	(1,0)	(1,0)	(1,0)	(1,0)	(1,0)	
L1D -435>	(1,0)	(1,0)	(1,0)	(1,0)	(1,0)	(1,0)	(1,0)	(1,0)	(1,0)	(1,0)	(1,0)	(1,0)	(1,0)	(1,0)	(1,0)	(1,0)	
L1D -434>	(1,6)	(1,0)	(1,0)	(1,0)	(1,0)	(1,0)	(1,0)	(1,0)	(1,0)	(1,0)	(1,0)	(1,0)	(1,0)	(1,0)	(1,0)	(1,0)	
L1D -433>	(1,7)	(1,0)	(1,0)	(1,0)	(1,0)	(1,0)	(1,0)	(1,0)	(1,0)	(1,0)	(1,0)	(1,0)	(1,0)	(1,0)	(1,0)	(1,0)	
L1D -432>	(1,0)	(1,0)	(1,0)	(1,0)	(1,0)	(1,0)	(1,0)	(1,0)	(1,0)	(1,0)	(1,0)	(1,0)	(1,0)	(1,0)	(1,0)	(1,0)	
L1D -431>	(1,0)	(1,0)	(1,0)	(1,0)	(1,0)	(1,0)	(1,0)	(1,0)	(1,0)	(1,0)	(1,0)	(1,0)	(1,0)	(1,0)	(1,0)	(1,0)	
L1D -430>	(1,0)	(1,0)	(1,0)	(1,0)	(1,0)	(1,0)	(1,0)	(1,0)	(1,0)	(1,0)	(1,0)	(1,0)	(1,0)	(1,0)	(1,0)	(1,0)	
L1D -429>	(1,0)	(1,0)	(1,0)	(1,0)	(1,0)	(1,0)	(1,0)	(1,0)	(1,0)	(1,0)	(1,0)	(1,0)	(1,0)	(1,0)	(1,0)	(1,0)	
L1D -428>	(-1,2)	(1,0)	(1,0)	(1,0)	(1,0)	(1,0)	(1,0)	(1,0)	(1,0)	(1,0)	(1,0)	(1,0)	(1,0)	(1,0)	(1,0)	(1,0)	
L1D -427>	(1,11)	(-1,4)	(1,0)	(1,0)	(1,0)	(1,0)	(1,0)	(1,0)	(1,0)	(1,0)	(1,0)	(1,0)	(1,0)	(1,0)	(1,0)	(1,0)	
L1D -426>	(-1,38)	(1,23)	(1,0)	(1,0)	(1,0)	(1,0)	(1,0)	(1,0)	(1,0)	(1,0)	(1,0)	(1,0)	(1,0)	(1,0)	(1,0)	(1,0)	
L1D -425>	(-1,103)	(1,0)	(1,0)	(1,0)	(1,0)	(1,0)	(1,0)	(1,0)	(1,0)	(1,0)	(1,0)	(1,0)	(1,0)	(1,0)	(1,0)	(1,0)	
L1D -424>	(1,2)	(-1,1)	(1,0)	(1,0)	(1,0)	(1,0)	(1,0)	(1,0)	(1,0)	(1,0)	(1,0)	(1,0)	(1,0)	(1,0)	(1,0)	(1,0)	
L1D -423>	(215,8)	(1,0)	(1,0)	(1,0)	(1,0)	(1,0)	(1,0)	(1,0)	(1,0)	(1,0)	(1,0)	(1,0)	(1,0)	(1,0)	(1,0)	(1,0)	
L1D -422>	(1,4)	(-1,8)	(215,17)	(213,5)	(214,26)	(212,1)	(222,1)	(216,1)	(1,0)	(1,0)	(1,0)	(1,0)	(1,0)	(1,0)	(1,0)	(1,0)	
L1D -421>	(-1,89)	(213,5)	(214,13)	(1,0)	(1,0)	(1,0)	(1,0)	(1,0)	(1,0)	(1,0)	(1,0)	(1,0)	(1,0)	(1,0)	(1,0)	(1,0)	
L1D -420>	(215,1)	(1,0)	(1,0)	(1,0)	(1,0)	(1,0)	(1,0)	(1,0)	(1,0)	(1,0)	(1,0)	(1,0)	(1,0)	(1,0)	(1,0)	(1,0)	
L1D -419>	(1,0)	(1,0)	(1,0)	(1,0)	(1,0)	(1,0)	(1,0)	(1,0)	(1,0)	(1,0)	(1,0)	(1,0)	(1,0)	(1,0)	(1,0)	(1,0)	
L1D -418>	(3,68)	(4,1)	(1,0)	(1,0)	(1,0)	(1,0)	(1,0)	(1,0)	(1,0)	(1,0)	(1,0)	(1,0)	(1,0)	(1,0)	(1,0)	(1,0)	
L1D -417>	(1,0)	(1,0)	(1,0)	(1,0)	(1,0)	(1,0)	(1,0)	(1,0)	(1,0)	(1,0)	(1,0)	(1,0)	(1,0)	(1,0)	(1,0)	(1,0)	
L1D -416>	(1,0)	(1,0)	(1,0)	(1,0)	(1,0)	(1,0)	(1,0)	(1,0)	(1,0)	(1,0)	(1,0)	(1,0)	(1,0)	(1,0)	(1,0)	(1,0)	
L1D -415>	(1,93)	(-3,1)	(-1,0)	(1,0)	(1,0)	(1,0)	(1,0)	(1,0)	(1,0)	(1,0)	(1,0)	(1,0)	(1,0)	(1,0)	(1,0)	(1,0)	
L1D -414>	(1,124)	(1,0)	(1,0)	(1,0)	(1,0)	(1,0)	(1,0)	(1,0)	(1,0)	(1,0)	(1,0)	(1,0)	(1,0)	(1,0)	(1,0)	(1,0)	
L1D -413>	(1,3)	(-1,1)	(1,0)	(1,0)	(1,0)	(1,0)	(1,0)	(1,0)	(1,0)	(1,0)	(1,0)	(1,0)	(1,0)	(1,0)	(1,0)	(1,0)	
L1D -412>	(1,0)	(1,0)	(1,0)	(1,0)	(1,0)	(1,0)	(1,0)	(1,0)	(1,0)	(1,0)	(1,0)	(1,0)	(1,0)	(1,0)	(1,0)	(1,0)	
L1D -411>	(-1,2)	(1,0)	(1,0)	(1,0)	(1,0)	(1,0)	(1,0)	(1,0)	(1,0)	(1,0)	(1,0)	(1,0)	(1,0)	(1,0)	(1,0)	(1,0)	
L1D -410>	(1,0)	(1,0)	(1,0)	(1,0)	(1,0)	(1,0)	(1,0)	(1,0)	(1,0)	(1,0)	(1,0)	(1,0)	(1,0)	(1,0)	(1,0)	(1,0)	
L1D -409>	(1,0)	(1,0)	(1,0)	(1,0)	(1,0)	(1,0)	(1,0)	(1,0)	(1,0)	(1,0)	(1,0)	(1,0)	(1,0)	(1,0)	(1,0)	(1,0)	
L1D -408>	(1,0)	(1,0)	(1,0)	(1,0)	(1,0)	(1,0)	(1,0)	(1,0)	(1,0)	(1,0)	(1,0)	(1,0)	(1,0)	(1,0)	(1,0)	(1,0)	
L1D -407>	(1,0)	(1,0)	(1,0)	(1,0)	(1,0)	(1,0)	(1,0)	(1,0)	(1,0)	(1,0)	(1,0)	(1,0)	(1,0)	(1,0)	(1,0)	(1,0)	
L1D -406>	(1,0)	(1,0)	(1,0)	(1,0)	(1,0)	(1,0)	(1,0)	(1,0)	(1,0)	(1,0)	(1,0)	(1,0)	(1,0)	(1,0)	(1,0)	(1,0)	
L1D -405>	(165,6)	(181,1)	(91,2)	(365,2)	(1,0)	(1,0)	(1,0)	(1,0)	(1,0)	(1,0)	(1,0)	(1,0)	(1,0)	(1,0)	(1,0)	(1,0)	
L1D -404>	(1,0)	(1,0)	(1,0)	(1,0)	(1,0)	(1,0)	(1,0)	(1,0)	(1,0)	(1,0)	(1,0)	(1,0)	(1,0)	(1,0)	(1,0)	(1,0)	
L1D -403>	(1,0)	(1,0)	(1,0)	(1,0)	(1,0)	(1,0)	(1,0)	(1,0)	(1,0)	(1,0)	(1,0)	(1,0)	(1,0)	(1,0)	(1,0)	(1,0)	
L1D -402>	(0,1)	(400,1)	(388,19)	(1,0)	(1,0)	(1,0)	(1,0)	(1,0)	(1,0)	(1,0)	(1,0)	(1,0)	(1,0)	(1,0)	(1,0)	(1,0)	
L1D -401>	(1,0)	(1,0)	(1,0)	(1,0)	(1,0)	(1,0)	(1,0)	(1,0)	(1,0)	(1,0)	(1,0)	(1,0)	(1,0)	(1,0)	(1,0)	(1,0)	
L1D -400>	(0,1)	(134,1)	(388,1)	(1,0)	(1,0)	(1,0)	(1,0)	(1,0)	(1,0)	(1,0)	(1,0)	(1,0)	(1,0)	(1,0)	(1,0)	(1,0)	
L1D -399>	(365,2)	(1,0)	(1,0)	(1,0)	(1,0)	(1,0)	(1,0)	(1,0)	(1,0)	(1,0)	(1,0)	(1,0)	(1,0)	(1,0)	(1,0)	(1,0)	
L1D -398>	(0,2)	(1,0)	(1,0)	(1,0)	(1,0)	(1,0)	(1,0)	(1,0)	(1,0)	(1,0)	(1,0)	(1,0)	(1,0)	(1,0)	(1,0)	(1,0)	
L1D -397>	(1,0)	(1,0)	(1,0)	(1,0)	(1,0)	(1,0)	(1,0)	(1,0)	(1,0)	(1,0)	(1,0)	(1,0)	(1,0)	(1,0)	(1,0)	(1,0)	
L1D -396>	(0,3)	(148,2)	(388,2)	(1,0)	(1,0)	(1,0)	(1,0)	(1,0)	(1,0)	(1,0)	(1,0)	(1,0)	(1,0)	(1,0)	(1,0)	(1,0)	
L1D -395>	(397,33)	(1,0)	(1,0)	(1,0)	(1,0)	(1,0)	(1,0)	(1,0)	(1,0)	(1,0)	(1,0)	(1,0)	(1,0)	(1,0)	(1,0)	(1,0)	
L1D -394>	(1,0)	(1,0)	(1,0)	(1,0)	(1,0)	(1,0)	(1,0)	(1,0)	(1,0)	(1,0)	(1,0)	(1,0)	(1,0)	(1,0)	(1,0)	(1,0)	
L1D -393>	(21,2)	(8,18)	(1,0)	(1,0)	(1,0)	(1,0)	(1,0)	(1,0)	(1,0)	(1,0)	(1,0)	(1,0)	(1,0)	(1,0)	(1,0)	(1,0)	
L1D -392>	(70,16)	(0,1)	(1,0)	(1,0)	(1,0)	(1,0)	(1,0)	(1,0)	(1,0)	(1,0)	(1,0)	(1,0)	(1,0)	(1,0)	(1,0)	(1,0)	
L1D -391>	(20,112)	(-4,2)	(-1,0)	(1,0)	(1,0)	(1,0)	(1,0)	(1,0)	(1,0)	(1,0)	(1,0)	(1,0)	(1,0)	(1,0)	(1,0)	(1,0)	
L1D -390>	(26,41)	(0,2)	(1,0)	(1,0)	(1,0)	(1,0)	(1,0)	(1,0)	(1,0)	(1,0)	(1,0)	(1,0)	(1,0)	(1,0)	(1,0)	(1,0)	
L1D -389>	(-1,1)	(1,0)	(1,0)	(1,0)	(1,0)	(1,0)	(1,0)	(1,0)	(1,0)	(1,0)	(1,0)	(1,0)	(1,0)	(1,0)	(1,0)	(1,0)	
L1D -388>	(148,5)	(267,9)	(0,1)	(-1,1)	(1,0)	(1,0)	(1,0)	(1,0)	(1,0)	(1,0)	(1,0)	(1,0)	(1,0)	(1,0)	(1,0)	(1,0)	
L1D -387>	(1,0)	(1,0)	(1,0)	(1,0)	(1,0)	(1,0)	(1,0)	(1,0)	(1,0)	(1,0)	(1,0)	(1,0)	(1,0)	(1,0)	(1,0)	(1,0)	
L1D -386>	(246,26)	(0,7)	(1,0)	(1,0)	(1,0)	(1,0)	(1,0)	(1,0)	(1,0)	(1,0)	(1,0)	(1,0)	(1,0)	(1,0)	(1,0)	(1,0)	
L1D -385>	(-3,1)	(345,2)	(1,0)	(1,0)	(1,0)	(1,0)	(1,0)	(1,0)	(1,0)	(1,0)	(1,0)	(1,0)	(1,0)	(1,0)	(1,0)	(1,0)	
L1D -384>	(0,2)	(221,1)	(1,0)	(1,0)	(1,0)	(1,0)	(1,0)	(1,0)	(1,0)	(1,0)	(1,0)	(1,0)	(1,0)	(1,0)	(1,0)	(1,0)	
L1D -383>	(-1,1)	(1,0)	(1,0)	(1,0)	(1,0)	(1,0)	(1,0)	(1,0)	(1,0)	(1,0)	(1,0)	(1,0)	(1,0)	(1,0)	(1,0)	(1,0)	
L1D -382>	(0,2)	(30,2)	(-1,1)	(1,0)	(1,0)	(1,0)	(1,0)	(1,0)	(1,0)	(1,0)	(1,0)	(1,0)	(1,0)	(1,0)	(1,0)	(1,0)	
L1D -381>	(1,0)	(1,0)	(1,0)	(1,0)	(1,0)	(1,0)	(1,0)	(1,0)	(1,0)	(1,0)	(1,0)	(1,0)	(1,0)	(1,0)	(1,0)	(1,0)	
L1D -380>	(294,2)	(1,0)	(1,0)	(1,0)	(1,0)	(1,0)	(1,0)	(1,0)	(1,0)	(1,0)	(1,0)	(1,0)	(1,0)	(1,0)	(1,0)	(1,0)	
L1D -379>	(-1,1)	(1,0)	(1,0)	(1,0)	(1,0)	(1,0)	(1,0)	(1,0)	(1,0)	(1,0)	(1,0)	(1,0)	(1,0)	(1,0)	(1,0)	(1,0)	
L1D -378>	(0,1)	(1,0)	(1,0)	(1,0)	(1,0)	(1,0)	(1,0)	(1,0)	(1,0)	(1,0)	(1,0)	(1,0)	(1,0)	(1,0)	(1,0)	(1,0)	
L1D -377>	(341,3)	(166,1)	(1,0)	(1,0)	(1,0)	(1,0)	(1,0)	(1,0)	(1,0)	(1,0)	(1,0)	(1,0)	(1,0)	(1,0)	(1,0)	(1,0)	
L1D -376>	(1,0)	(1,0)	(1,0)	(1,0)	(1,0)	(1,0)	(1,0)	(1,0)	(1,0)	(1,0)	(1,0)	(1,0)	(1,0)	(1,0)	(1,0)	(1,0)	
L1D -375>	(0,1)	(1,0)	(1,0)	(1,0)	(1,0)	(1,0)	(1,0)	(1,0)	(1,0)	(1,0)	(1,0)	(1,0)	(1,0)	(1,0)	(1,0)	(1,0)	
L1D -374>	(1,0)	(1,0)	(1,0)	(1,0)	(1,0)	(1,0)	(1,0)	(1,0)	(1,0)	(1,0)	(1,0)	(1,0)	(1,0)	(1,0)	(1,0)	(1,0)	
L1D -373>	(1,0)	(1,0)	(1,0)	(1,0)	(1,0)	(1,0)	(1,0)	(1,0)	(1,0)	(1,0)	(1,0)	(1,0)	(1,0)	(1,0)	(1,0)	(1,0)	
L1D -372>	(-21,114)	(-13,0)	(1,0)	(1,0)	(1,0)	(1,0)	(1,0)	(1,0)	(1,0)	(1,0)	(1,0)	(1,0)	(1,0)	(1,0)	(1,0)	(1,0)	
L1D -371>	(214,1)	(-20,1)	(1,0)	(1,0)	(1,0)	(1,0)	(1,0)	(1,0)	(1,0)	(1,0)	(1,0)	(1,0)	(1,0)	(1,0)	(1,0)	(1,0)	
L1D -370>	(234,30)	(140,10)	(184,4)	(1,0)	(1,0)	(1,0)	(1,0)	(1,0)	(1,0)	(1,0)	(1,0)	(1,0)	(1,0)	(1,0)	(1,0)	(1,0)	
L1D -369>	(-1,2)	(1,0)	(1,0)	(1,0)	(1,0)	(1,0)	(1,0)	(1,0)	(1,0)	(1,0)	(1,0)	(1,0)	(1,0)	(1,0)	(1,0)	(1,0)	
L1D -368>	(-4,8)	(366,10)	(1,0)	(1,0)	(1,0)	(1,0)	(1,0)	(1,0)	(1,0)	(1,0)	(1,0)	(1,0)	(1,0)	(1,0)	(1,0)	(1,0)	
L1D -367>	(1,0)	(1,0)	(1,0)	(1,0)	(1,0)	(1,0)	(1,0)	(1,0)	(1,0)	(1,0)	(1,0)	(1,0)	(1,0)	(1,0)	(1,0)	(1,0)	
L1D -366>	(1,0)	(1,0)	(1,0)	(1,0)	(1,0)	(1,0)	(1,0)	(1,0)	(1,0)	(1,0)	(1,0)	(1,0)	(1,0)	(1,0)	(1,0)	(1,0)	
L1D -365>	(1,0)	(1,0)	(1,0)	(1,0)	(1,0)	(1,0)	(1,0)	(1,0)	(1,0)	(1,0)	(1,0)	(1,0)	(1,0)	(1,0)	(1,0)	(1,0)	
L1D -364>	(268,75)	(44,0)	(-26,1)	(1,0)	(1,0)	(1,0)	(1,0)	(1,0)	(1,0)	(1,0)	(1,0)	(1,0)	(1,0)	(1,0)	(1,0)	(1,0)	
L1D -363>	(403,3)	(175,2)	(83,2)	(345,2)	(-1,1)	(1,0)	(1,0)	(1,0)	(1,0)	(1,0)	(1,0)	(1,0)	(1,0)	(1,0)	(1,0)	(1,0)	
L1D -362>	(360,8)	(1,0)	(1,0)	(1,0)	(1,0)	(1,0)	(1,0)	(1,0)	(1,0)	(1,0)	(1,0)	(1,0)	(1,0)	(1,0)	(1,0)	(1,0)	
L1D -361>	(103,1)	(1,0)	(1,0)	(1,0)	(1,0)	(1,0)	(1,0)	(1,0)	(1,0)	(1,0)	(1,0)	(1,0)	(1,0)	(1,0)	(1,0)	(1,0)	
L1D -360>	(298,118)	(296,38)	(148,13)	(42,4)	(358,1)	(0,3)	(346,1)	(36,2)	(40,1)	(1,0)	(1,0)	(1,0)	(1,0)	(1,0)	(1,0)	(1,0)	
L1D -359>	(-1,2)	(1,0)	(1,0)	(1,0)	(1,0)	(1,0)	(1,0)	(1,0)	(1,0)	(1,0)	(1,0)	(1,0)	(1,0)	(1,0)	(1,0)	(1,0)	
L1D -358>	(70,0)	(234,0)	(356,73)	(16,0)	(316,0)	(1,0)	(1,0)	(1,0)	(1,0)	(1,0)	(1,0)	(1,0)	(1,0)	(1,0)	(1,0)	(1,0)	
L1D -357>	(1,0)	(1,0)	(1,0)	(1,0)	(1,0)	(1,0)	(1,0)	(1,0)	(1,0)	(1,0)	(1,0)	(1,0)	(1,0)	(1,0)	(1,0)	(1,0)	
L1D -356>	(-31,8)	(262,18)	(70,13)	(40,1)	(34,1)	(1,0)	(1,0)	(1,0)	(1,0)	(1,0)	(1,0)	(1,0)	(1,0)	(1,0)	(1,0)	(1,0)	
L1D -355>	(215,116)	(365,15)	(1,0)	(1,0)	(1,0)	(1,0)	(1,0)	(1,0)	(1,0)	(1,0)	(1,0)	(1,0)	(1,0)	(1,0)	(1,0)	(1,0)	
L1D -354>	(336,0)	(250,0)	(380,0)	(303,0)	(268,0)	(240,0)	(-42,0)	(154,0)	(396,0)	(402,0)	(292,0)	(400,0)	(388,83)	(398,1)	(378,1)	(337,0)	
L1D -353>	(1,0)	(1,0)	(1,0)	(1,0)	(1,0)	(1,0)	(1,0)	(1,0)	(1,0)	(1,0)	(1,0)	(1,0)	(1,0)	(1,0)	(1,0)	(1,0)	
L1D -352>	(142,0)	(220,95)	(88,1)	(-30,3)	(-85,0)	(12,0)	(242,0)	(254,0)	(260,0)	(38,0)	(212,0)	(264,0)	(124,2)	(2,0)	(218,0)	(92,0)	
L1D -351>	(317,2)	(213,1)	(95,4)	(265,1)	(361,2)	(1,0)	(1,0)	(1,0)	(1,0)	(1,0)	(1,0)	(1,0)	(1,0)	(1,0)	(1,0)	(1,0)	
L1D -350>	(1,77)	(20,2)	(30,0)	(-2,0)	(304,1)	(252,1)	(1,0)	(1,0)	(1,0)	(1,0)	(1,0)	(1,0)	(1,0)	(1,0)	(1,0)	(1,0)	
L1D -349>	(181,4)	(-1,1)	(1,0)	(1,0)	(1,0)	(1,0)	(1,0)	(1,0)	(1,0)	(1,0)	(1,0)	(1,0)	(1,0)	(1,0)	(1,0)	(1,0)	
L1D -348>	(212,4)	(4,7)	(12,2)	(28,5)	(256,6)	(347,6)	(1,0)	(1,0)	(1,0)	(1,0)	(1,0)	(1,0)	(1,0)	(1,0)	(1,0)	(1,0)	
L1D -347>	(176,2)	(3,16)	(174,19)	(347,1)	(2,44)	(4,9)	(346,6)	(301,1)	(348,21)	(-1,14)	(172,24)	(349,1)	(344,64)	(343,1)	(313,2)	(93,1)	
L1D -346>	(342,16)	(254,53)	(345,113)	(344,0)	(3,26)	(343,21)	(234,0)	(172,4)	(174,30)	(173,1)	(347,3)	(171,0)	(1,21)	(9,0)	(1,0)	(1,0)	
L1D -345>	(169,13)	(172,28)	(342,23)	(171,4)	(345,114)	(1,6)	(346,49)	(351,1)	(301,0)	(3,15)	(2,10)	(347,1)	(344,10)	(254,0)	(173,11)	(-1,2)	
L1D -344>	(171,77)	(341,6)	(172,69)	(173,84)	(347,14)	(3,6)	(174,13)	(348,2)	(168,15)	(1,11)	(170,11)	(2,1)	(4,20)	(169,12)	(-1,17)	(343,117)	
L1D -343>	(346,17)	(172,35)	(342,87)	(171,42)	(-4,0)	(345,50)	(-3,14)	(-1,76)	(-2,6)	(1,68)	(343,4)	(169,6)	(173,0)	(170,1)	(168,0)	(2,0)	
L1D -342>	(172,0)	(345,27)	(-1,50)	(170,84)	(169,0)	(-4,91)	(346,29)	(341,0)	(344,0)	(343,0)	(-2,0)	(173,1)	(-3,1)	(5,0)	(1,0)	(1,0)	
L1D -341>	(342,3)	(172,71)	(173,6)	(171,74)	(170,12)	(-1,81)	(-2,14)	(169,16)	(343,19)	(168,3)	(349,0)	(345,0)	(-4,1)	(0,0)	(1,2)	(1,0)	
L1D -340>	(175,0)	(343,14)	(171,93)	(341,2)	(68,0)	(169,83)	(168,20)	(-4,4)	(-1,12)	(1,0)	(2,0)	(238,0)	(344,5)	(172,20)	(1,0)	(1,0)	
L1D -339>	(397,43)	(170,3)	(189,1)	(310,2)	(399,6)	(79,1)	(1,0)	(1,0)	(1,0)	(1,0)	(1,0)	(1,0)	(1,0)	(1,0)	(1,0)	(1,0)	
L1D -338>	(134,5)	(306,16)	(24,32)	(252,12)	(-14,31)	(354,3)	(242,3)	(-12,7)	(342,2)	(316,11)	(304,23)	(-1,1)	(173,2)	(16,1)	(230,2)	(78,17)	
L1D -337>	(365,2)	(-1,54)	(1,4)	(172,24)	(-172,1)	(-2,3)	(1,0)	(1,0)	(1,0)	(1,0)	(1,0)	(1,0)	(1,0)	(1,0)	(1,0)	(1,0)	
L1D -336>	(212,88)	(134,0)	(158,0)	(240,0)	(42,0)	(354,0)	(112,0)	(72,0)	(254,0)	(192,0)	(228,0)	(200,0)	(1,0)	(1,0)	(1,0)	(1,0)	
L1D -335>	(-2,4)	(172,18)	(-1,20)	(1,0)	(1,0)	(1,0)	(1,0)	(1,0)	(1,0)	(1,0)	(1,0)	(1,0)	(1,0)	(1,0)	(1,0)	(1,0)	
L1D -334>	(66,4)	(14,4)	(1,0)	(1,0)	(1,0)	(1,0)	(1,0)	(1,0)	(1,0)	(1,0)	(1,0)	(1,0)	(1,0)	(1,0)	(1,0)	(1,0)	
L1D -333>	(1,0)	(1,0)	(1,0)	(1,0)	(1,0)	(1,0)	(1,0)	(1,0)	(1,0)	(1,0)	(1,0)	(1,0)	(1,0)	(1,0)	(1,0)	(1,0)	
L1D -332>	(18,72)	(334,72)	(338,0)	(242,0)	(-14,0)	(98,1)	(336,0)	(2,0)	(1,0)	(1,0)	(1,0)	(1,0)	(1,0)	(1,0)	(1,0)	(1,0)	
L1D -331>	(1,0)	(1,0)	(1,0)	(1,0)	(1,0)	(1,0)	(1,0)	(1,0)	(1,0)	(1,0)	(1,0)	(1,0)	(1,0)	(1,0)	(1,0)	(1,0)	
L1D -330>	(212,19)	(244,28)	(216,2)	(116,4)	(10,4)	(328,1)	(8,1)	(-22,92)	(232,12)	(300,4)	(338,13)	(228,1)	(1,0)	(1,0)	(1,0)	(1,0)	
L1D -329>	(3,70)	(-1,2)	(4,2)	(5,1)	(1,0)	(1,0)	(1,0)	(1,0)	(1,0)	(1,0)	(1,0)	(1,0)	(1,0)	(1,0)	(1,0)	(1,0)	
L1D -328>	(264,4)	(318,2)	(66,2)	(308,1)	(216,126)	(116,20)	(-32,10)	(1,0)	(1,0)	(1,0)	(1,0)	(1,0)	(1,0)	(1,0)	(1,0)	(1,0)	
L1D -327>	(-1,1)	(1,0)	(1,0)	(1,0)	(1,0)	(1,0)	(1,0)	(1,0)	(1,0)	(1,0)	(1,0)	(1,0)	(1,0)	(1,0)	(1,0)	(1,0)	
L1D -326>	(1,120)	(-30,0)	(218,0)	(262,0)	(-3,4)	(96,9)	(318,2)	(140,1)	(1,0)	(1,0)	(1,0)	(1,0)	(1,0)	(1,0)	(1,0)	(1,0)	
L1D -325>	(1,69)	(1,0)	(1,0)	(1,0)	(1,0)	(1,0)	(1,0)	(1,0)	(1,0)	(1,0)	(1,0)	(1,0)	(1,0)	(1,0)	(1,0)	(1,0)	
L1D -324>	(52,0)	(350,0)	(238,90)	(1,16)	(20,2)	(1,0)	(1,0)	(1,0)	(1,0)	(1,0)	(1,0)	(1,0)	(1,0)	(1,0)	(1,0)	(1,0)	
L1D -323>	(2,100)	(-6,1)	(1,0)	(1,0)	(1,0)	(1,0)	(1,0)	(1,0)	(1,0)	(1,0)	(1,0)	(1,0)	(1,0)	(1,0)	(1,0)	(1,0)	
L1D -322>	(280,3)	(74,70)	(314,64)	(197,71)	(320,0)	(2,0)	(42,0)	(20,0)	(-70,0)	(226,0)	(232,1)	(288,0)	(96,1)	(302,64)	(82,0)	(174,0)	
L1D -321>	(215,18)	(2,2)	(1,0)	(1,0)	(1,0)	(1,0)	(1,0)	(1,0)	(1,0)	(1,0)	(1,0)	(1,0)	(1,0)	(1,0)	(1,0)	(1,0)	
L1D -320>	(94,1)	(-28,0)	(178,0)	(78,1)	(214,0)	(-14,5)	(-30,0)	(258,0)	(-44,0)	(314,1)	(278,0)	(52,2)	(-16,0)	(90,3)	(236,74)	(102,4)	
L1D -319>	(167,4)	(265,21)	(361,1)	(1,0)	(1,0)	(1,0)	(1,0)	(1,0)	(1,0)	(1,0)	(1,0)	(1,0)	(1,0)	(1,0)	(1,0)	(1,0)	
L1D -318>	(358,11)	(316,5)	(-42,2)	(254,7)	(28,1)	(-10,2)	(84,80)	(-28,12)	(352,1)	(-1,1)	(94,6)	(32,1)	(1,0)	(1,0)	(1,0)	(1,0)	
L1D -317>	(345,7)	(265,10)	(1,0)	(1,0)	(1,0)	(1,0)	(1,0)	(1,0)	(1,0)	(1,0)	(1,0)	(1,0)	(1,0)	(1,0)	(1,0)	(1,0)	
L1D -316>	(100,0)	(56,0)	(30,2)	(32,0)	(2,0)	(112,0)	(-2,0)	(106,64)	(22,0)	(104,0)	(358,0)	(20,35)	(122,1)	(314,0)	(252,2)	(330,0)	
L1D -315>	(1,0)	(1,0)	(1,0)	(1,0)	(1,0)	(1,0)	(1,0)	(1,0)	(1,0)	(1,0)	(1,0)	(1,0)	(1,0)	(1,0)	(1,0)	(1,0)	
L1D -314>	(272,88)	(270,3)	(298,78)	(28,1)	(218,0)	(274,1)	(106,3)	(306,0)	(-24,1)	(198,2)	(2,0)	(98,1)	(259,0)	(-6,1)	(130,0)	(206,1)	
L1D -313>	(241,1)	(21,1)	(1,0)	(1,0)	(1,0)	(1,0)	(1,0)	(1,0)	(1,0)	(1,0)	(1,0)	(1,0)	(1,0)	(1,0)	(1,0)	(1,0)	
L1D -312>	(305,93)	(246,0)	(266,0)	(354,0)	(94,0)	(84,0)	(272,0)	(330,0)	(350,9)	(1,0)	(1,0)	(1,0)	(1,0)	(1,0)	(1,0)	(1,0)	
L1D -311>	(1,0)	(1,0)	(1,0)	(1,0)	(1,0)	(1,0)	(1,0)	(1,0)	(1,0)	(1,0)	(1,0)	(1,0)	(1,0)	(1,0)	(1,0)	(1,0)	
L1D -310>	(148,15)	(354,20)	(336,16)	(134,12)	(244,6)	(0,7)	(256,7)	(258,6)	(174,2)	(228,2)	(154,1)	(208,42)	(108,16)	(1,0)	(1,0)	(1,0)	
L1D -309>	(1,0)	(1,0)	(1,0)	(1,0)	(1,0)	(1,0)	(1,0)	(1,0)	(1,0)	(1,0)	(1,0)	(1,0)	(1,0)	(1,0)	(1,0)	(1,0)	
L1D -308>	(260,64)	(258,1)	(270,48)	(122,0)	(324,0)	(86,0)	(82,1)	(-14,0)	(220,0)	(14,0)	(244,4)	(332,0)	(150,0)	(238,0)	(8,0)	(1,0)	
L1D -307>	(1,0)	(1,0)	(1,0)	(1,0)	(1,0)	(1,0)	(1,0)	(1,0)	(1,0)	(1,0)	(1,0)	(1,0)	(1,0)	(1,0)	(1,0)	(1,0)	
L1D -306>	(316,19)	(326,9)	(324,2)	(304,3)	(42,2)	(-8,1)	(10,1)	(354,1)	(8,32)	(52,11)	(240,3)	(272,1)	(1,0)	(1,0)	(1,0)	(1,0)	
L1D -305>	(408,22)	(20,17)	(12,81)	(13,3)	(345,1)	(1,0)	(1,0)	(1,0)	(1,0)	(1,0)	(1,0)	(1,0)	(1,0)	(1,0)	(1,0)	(1,0)	
L1D -304>	(28,35)	(74,10)	(20,5)	(116,4)	(-40,2)	(202,1)	(112,2)	(304,1)	(258,42)	(354,20)	(-22,11)	(208,12)	(-138,1)	(1,0)	(1,0)	(1,0)	
L1D -303>	(68,94)	(140,2)	(28,0)	(260,7)	(154,2)	(242,0)	(1,0)	(1,0)	(1,0)	(1,0)	(1,0)	(1,0)	(1,0)	(1,0)	(1,0)	(1,0)	
L1D -302>	(140,6)	(192,2)	(104,1)	(80,2)	(210,1)	(92,1)	(158,1)	(96,103)	(188,3)	(1,0)	(1,0)	(1,0)	(1,0)	(1,0)	(1,0)	(1,0)	
L1D -301>	(1,0)	(1,0)	(1,0)	(1,0)	(1,0)	(1,0)	(1,0)	(1,0)	(1,0)	(1,0)	(1,0)	(1,0)	(1,0)	(1,0)	(1,0)	(1,0)	
L1D -300>	(66,35)	(-22,36)	(115,3)	(338,16)	(104,3)	(-8,2)	(192,1)	(98,1)	(242,20)	(314,1)	(1,0)	(1,0)	(1,0)	(1,0)	(1,0)	(1,0)	
L1D -299>	(-1,1)	(1,0)	(1,0)	(1,0)	(1,0)	(1,0)	(1,0)	(1,0)	(1,0)	(1,0)	(1,0)	(1,0)	(1,0)	(1,0)	(1,0)	(1,0)	
L1D -298>	(254,8)	(94,1)	(314,2)	(338,0)	(272,0)	(40,0)	(-22,0)	(296,0)	(154,0)	(318,0)	(188,101)	(250,16)	(1,0)	(1,0)	(1,0)	(1,0)	
L1D -297>	(1,0)	(1,0)	(1,0)	(1,0)	(1,0)	(1,0)	(1,0)	(1,0)	(1,0)	(1,0)	(1,0)	(1,0)	(1,0)	(1,0)	(1,0)	(1,0)	
L1D -296>	(338,12)	(42,13)	(294,14)	(26,32)	(258,2)	(267,32)	(200,26)	(284,2)	(256,16)	(-12,2)	(120,2)	(-2,2)	(-20,1)	(86,2)	(250,20)	(-22,42)	
L1D -295>	(1,0)	(1,0)	(1,0)	(1,0)	(1,0)	(1,0)	(1,0)	(1,0)	(1,0)	(1,0)	(1,0)	(1,0)	(1,0)	(1,0)	(1,0)	(1,0)	
L1D -294>	(392,1)	(0,2)	(166,115)	(212,0)	(250,101)	(354,0)	(72,1)	(364,2)	(32,18)	(228,1)	(70,4)	(268,0)	(-20,1)	(197,0)	(318,0)	(44,2)	
L1D -293>	(317,33)	(319,45)	(-12,4)	(-20,15)	(345,25)	(-1,1)	(1,0)	(1,0)	(1,0)	(1,0)	(1,0)	(1,0)	(1,0)	(1,0)	(1,0)	(1,0)	
L1D -292>	(122,2)	(-13,126)	(8,3)	(-21,6)	(212,2)	(300,1)	(380,2)	(316,1)	(260,2)	(40,2)	(272,0)	(303,0)	(10,3)	(228,0)	(318,107)	(294,2)	
L1D -291>	(5,24)	(-4,2)	(-1,1)	(1,0)	(1,0)	(1,0)	(1,0)	(1,0)	(1,0)	(1,0)	(1,0)	(1,0)	(1,0)	(1,0)	(1,0)	(1,0)	
L1D -290>	(30,16)	(302,0)	(42,59)	(232,0)	(242,0)	(212,6)	(145,0)	(100,0)	(18,0)	(262,0)	(288,0)	(244,1)	(264,0)	(40,1)	(116,94)	(10,11)	
L1D -289>	(-1,1)	(320,1)	(1,0)	(1,0)	(1,0)	(1,0)	(1,0)	(1,0)	(1,0)	(1,0)	(1,0)	(1,0)	(1,0)	(1,0)	(1,0)	(1,0)	
L1D -288>	(308,27)	(-28,6)	(136,19)	(10,11)	(14,2)	(1,0)	(1,0)	(1,0)	(1,0)	(1,0)	(1,0)	(1,0)	(1,0)	(1,0)	(1,0)	(1,0)	
L1D -287>	(-1,2)	(1,0)	(1,0)	(1,0)	(1,0)	(1,0)	(1,0)	(1,0)	(1,0)	(1,0)	(1,0)	(1,0)	(1,0)	(1,0)	(1,0)	(1,0)	
L1D -286>	(204,0)	(308,80)	(186,1)	(134,0)	(124,0)	(270,0)	(-10,0)	(38,0)	(-40,0)	(26,0)	(100,0)	(13,2)	(284,1)	(1,0)	(1,0)	(1,0)	
L1D -285>	(74,1)	(1,0)	(1,0)	(1,0)	(1,0)	(1,0)	(1,0)	(1,0)	(1,0)	(1,0)	(1,0)	(1,0)	(1,0)	(1,0)	(1,0)	(1,0)	
L1D -284>	(320,0)	(-24,0)	(68,0)	(318,0)	(8,0)	(114,1)	(272,0)	(308,0)	(112,1)	(350,0)	(268,0)	(303,1)	(64,81)	(212,85)	(40,2)	(66,1)	
L1D -283>	(212,27)	(218,7)	(186,21)	(-2,6)	(102,1)	(190,0)	(72,86)	(64,9)	(96,9)	(1,0)	(1,0)	(1,0)	(1,0)	(1,0)	(1,0)	(1,0)	
L1D -282>	(316,0)	(70,0)	(114,0)	(308,75)	(106,37)	(318,14)	(218,0)	(98,4)	(222,0)	(1,0)	(1,0)	(1,0)	(1,0)	(1,0)	(1,0)	(1,0)	
L1D -281>	(1,0)	(1,0)	(1,0)	(1,0)	(1,0)	(1,0)	(1,0)	(1,0)	(1,0)	(1,0)	(1,0)	(1,0)	(1,0)	(1,0)	(1,0)	(1,0)	
L1D -280>	(164,0)	(264,0)	(-12,105)	(14,1)	(92,4)	(320,0)	(206,2)	(114,1)	(100,0)	(-10,0)	(160,91)	(36,1)	(198,9)	(8,5)	(230,3)	(146,42)	
L1D -279>	(-1,1)	(1,0)	(1,0)	(1,0)	(1,0)	(1,0)	(1,0)	(1,0)	(1,0)	(1,0)	(1,0)	(1,0)	(1,0)	(1,0)	(1,0)	(1,0)	
L1D -278>	(238,0)	(312,75)	(318,0)	(350,0)	(82,0)	(304,1)	(228,0)	(212,0)	(214,0)	(368,0)	(200,0)	(224,0)	(292,0)	(-32,0)	(360,82)	(-2,0)	
L1D -277>	(-6,11)	(1,0)	(1,0)	(1,0)	(1,0)	(1,0)	(1,0)	(1,0)	(1,0)	(1,0)	(1,0)	(1,0)	(1,0)	(1,0)	(1,0)	(1,0)	
L1D -276>	(186,24)	(302,3)	(18,4)	(278,1)	(260,2)	(-92,22)	(28,1)	(142,1)	(230,32)	(204,11)	(226,1)	(342,1)	(1,0)	(1,0)	(1,0)	(1,0)	
L1D -275>	(277,28)	(58,3)	(212,75)	(66,0)	(90,0)	(1,0)	(1,0)	(1,0)	(1,0)	(1,0)	(1,0)	(1,0)	(1,0)	(1,0)	(1,0)	(1,0)	
L1D -274>	(166,3)	(-31,5)	(136,7)	(186,3)	(314,1)	(68,2)	(122,12)	(106,3)	(78,32)	(291,5)	(2,1)	(1,0)	(1,0)	(1,0)	(1,0)	(1,0)	
L1D -273>	(1,0)	(1,0)	(1,0)	(1,0)	(1,0)	(1,0)	(1,0)	(1,0)	(1,0)	(1,0)	(1,0)	(1,0)	(1,0)	(1,0)	(1,0)	(1,0)	
L1D -272>	(-54,114)	(268,7)	(-10,23)	(289,2)	(80,88)	(78,1)	(312,69)	(244,1)	(264,1)	(72,22)	(118,3)	(162,2)	(96,5)	(303,83)	(2,1)	(240,1)	
L1D -271>	(254,4)	(-1,1)	(1,0)	(1,0)	(1,0)	(1,0)	(1,0)	(1,0)	(1,0)	(1,0)	(1,0)	(1,0)	(1,0)	(1,0)	(1,0)	(1,0)	
L1D -270>	(-21,122)	(348,1)	(204,1)	(14,1)	(252,0)	(154,0)	(330,0)	(-16,3)	(202,2)	(-25,0)	(28,3)	(272,0)	(1,0)	(1,0)	(1,0)	(1,0)	
L1D -269>	(1,0)	(1,0)	(1,0)	(1,0)	(1,0)	(1,0)	(1,0)	(1,0)	(1,0)	(1,0)	(1,0)	(1,0)	(1,0)	(1,0)	(1,0)	(1,0)	
L1D -268>	(4,6)	(332,0)	(290,31)	(-68,1)	(172,68)	(266,0)	(338,1)	(303,0)	(134,0)	(-52,2)	(228,0)	(313,3)	(2,0)	(40,95)	(198,6)	(200,7)	
L1D -267>	(158,45)	(0,2)	(196,14)	(337,8)	(240,12)	(58,2)	(284,22)	(180,22)	(212,9)	(1,0)	(1,0)	(1,0)	(1,0)	(1,0)	(1,0)	(1,0)	
L1D -266>	(198,6)	(212,56)	(314,11)	(228,2)	(82,9)	(254,2)	(242,4)	(284,2)	(8,1)	(264,2)	(330,1)	(-95,3)	(96,36)	(168,126)	(72,9)	(328,11)	
L1D -265>	(167,89)	(361,3)	(347,0)	(1,0)	(1,0)	(1,0)	(1,0)	(1,0)	(1,0)	(1,0)	(1,0)	(1,0)	(1,0)	(1,0)	(1,0)	(1,0)	
L1D -264>	(0,5)	(332,4)	(48,9)	(238,16)	(82,4)	(-4,5)	(2,6)	(36,9)	(-6,1)	(318,3)	(308,2)	(46,2)	(224,83)	(230,8)	(286,40)	(20,54)	
L1D -263>	(361,1)	(1,0)	(1,0)	(1,0)	(1,0)	(1,0)	(1,0)	(1,0)	(1,0)	(1,0)	(1,0)	(1,0)	(1,0)	(1,0)	(1,0)	(1,0)	
L1D -262>	(-32,3)	(166,13)	(115,1)	(18,20)	(260,17)	(248,2)	(54,4)	(306,8)	(268,6)	(328,105)	(370,25)	(222,7)	(267,8)	(338,67)	(234,14)	(116,30)	
L1D -261>	(103,12)	(1,0)	(1,0)	(1,0)	(1,0)	(1,0)	(1,0)	(1,0)	(1,0)	(1,0)	(1,0)	(1,0)	(1,0)	(1,0)	(1,0)	(1,0)	
L1D -260>	(212,0)	(152,70)	(106,5)	(-12,0)	(308,1)	(288,9)	(380,3)	(-92,0)	(12,2)	(168,1)	(66,2)	(-54,0)	(326,6)	(-90,0)	(220,0)	(-78,0)	
L1D -259>	(24,6)	(1,0)	(1,0)	(1,0)	(1,0)	(1,0)	(1,0)	(1,0)	(1,0)	(1,0)	(1,0)	(1,0)	(1,0)	(1,0)	(1,0)	(1,0)	
L1D -258>	(115,84)	(-8,0)	(262,84)	(230,1)	(38,7)	(66,27)	(224,0)	(84,0)	(-10,2)	(-58,1)	(120,0)	(112,77)	(208,0)	(216,1)	(70,0)	(252,1)	
L1D -257>	(-1,1)	(1,0)	(1,0)	(1,0)	(1,0)	(1,0)	(1,0)	(1,0)	(1,0)	(1,0)	(1,0)	(1,0)	(1,0)	(1,0)	(1,0)	(1,0)	
L1D -256>	(2,20)	(84,124)	(74,11)	(14,6)	(194,1)	(8,1)	(144,0)	(166,1)	(196,6)	(312,15)	(-1,0)	(168,0)	(328,11)	(232,5)	(-14,7)	(208,1)	
L1D -255>	(-1,1)	(1,0)	(1,0)	(1,0)	(1,0)	(1,0)	(1,0)	(1,0)	(1,0)	(1,0)	(1,0)	(1,0)	(1,0)	(1,0)	(1,0)	(1,0)	
L1D -254>	(352,24)	(24,4)	(118,2)	(272,4)	(254,2)	(114,13)	(318,2)	(-10,12)	(28,19)	(-52,10)	(142,1)	(153,1)	(316,1)	(1,0)	(1,0)	(1,0)	
L1D -253>	(1,0)	(1,0)	(1,0)	(1,0)	(1,0)	(1,0)	(1,0)	(1,0)	(1,0)	(1,0)	(1,0)	(1,0)	(1,0)	(1,0)	(1,0)	(1,0)	
L1D -252>	(260,0)	(386,96)	(-10,0)	(208,0)	(112,5)	(118,0)	(267,0)	(106,0)	(188,16)	(80,0)	(116,0)	(360,0)	(154,2)	(256,0)	(164,0)	(28,0)	
L1D -251>	(1,0)	(1,0)	(1,0)	(1,0)	(1,0)	(1,0)	(1,0)	(1,0)	(1,0)	(1,0)	(1,0)	(1,0)	(1,0)	(1,0)	(1,0)	(1,0)	
L1D -250>	(254,44)	(244,28)	(177,30)	(2,77)	(-10,24)	(334,2)	(304,1)	(0,1)	(292,1)	(318,10)	(56,19)	(106,10)	(-40,18)	(204,3)	(316,1)	(1,0)	
L1D -249>	(-1,2)	(1,0)	(1,0)	(1,0)	(1,0)	(1,0)	(1,0)	(1,0)	(1,0)	(1,0)	(1,0)	(1,0)	(1,0)	(1,0)	(1,0)	(1,0)	
L1D -248>	(66,1)	(260,1)	(-12,42)	(10,3)	(190,90)	(144,2)	(286,2)	(314,1)	(-24,48)	(32,0)	(98,0)	(54,22)	(288,7)	(16,3)	(198,0)	(1,0)	
L1D -247>	(72,1)	(96,0)	(64,0)	(194,69)	(256,0)	(1,0)	(1,0)	(1,0)	(1,0)	(1,0)	(1,0)	(1,0)	(1,0)	(1,0)	(1,0)	(1,0)	
L1D -246>	(144,10)	(18,1)	(48,4)	(336,1)	(272,9)	(364,2)	(318,1)	(294,1)	(154,1)	(-76,120)	(220,68)	(238,7)	(142,1)	(1,0)	(1,0)	(1,0)	
L1D -245>	(1,0)	(1,0)	(1,0)	(1,0)	(1,0)	(1,0)	(1,0)	(1,0)	(1,0)	(1,0)	(1,0)	(1,0)	(1,0)	(1,0)	(1,0)	(1,0)	
L1D -244>	(48,8)	(254,0)	(256,0)	(236,0)	(150,0)	(270,0)	(268,1)	(310,70)	(336,0)	(242,11)	(108,2)	(258,1)	(318,0)	(-22,1)	(338,1)	(226,0)	
L1D -243>	(1,0)	(1,0)	(1,0)	(1,0)	(1,0)	(1,0)	(1,0)	(1,0)	(1,0)	(1,0)	(1,0)	(1,0)	(1,0)	(1,0)	(1,0)	(1,0)	
L1D -242>	(2,74)	(260,2)	(20,16)	(158,9)	(18,2)	(-80,1)	(-78,0)	(6,2)	(314,0)	(316,1)	(240,0)	(194,13)	(12,1)	(252,2)	(176,1)	(48,4)	
L1D -241>	(1,0)	(1,0)	(1,0)	(1,0)	(1,0)	(1,0)	(1,0)	(1,0)	(1,0)	(1,0)	(1,0)	(1,0)	(1,0)	(1,0)	(1,0)	(1,0)	
L1D -240>	(10,23)	(-2,1)	(28,5)	(290,1)	(314,0)	(130,0)	(304,0)	(337,0)	(208,0)	(24,1)	(38,4)	(116,3)	(190,7)	(346,0)	(-74,3)	(-10,125)	
L1D -239>	(1,0)	(1,0)	(1,0)	(1,0)	(1,0)	(1,0)	(1,0)	(1,0)	(1,0)	(1,0)	(1,0)	(1,0)	(1,0)	(1,0)	(1,0)	(1,0)	
L1D -238>	(172,0)	(8,5)	(-56,0)	(198,2)	(-70,0)	(134,0)	(220,1)	(215,0)	(38,0)	(308,6)	(44,119)	(2,3)	(298,2)	(-76,1)	(16,6)	(280,7)	
L1D -237>	(1,0)	(1,0)	(1,0)	(1,0)	(1,0)	(1,0)	(1,0)	(1,0)	(1,0)	(1,0)	(1,0)	(1,0)	(1,0)	(1,0)	(1,0)	(1,0)	
L1D -236>	(28,0)	(338,0)	(318,1)	(96,0)	(316,1)	(312,0)	(234,0)	(70,0)	(200,0)	(278,72)	(264,14)	(224,2)	(84,0)	(64,0)	(66,0)	(1,0)	
L1D -235>	(302,77)	(72,0)	(1,0)	(1,0)	(1,0)	(1,0)	(1,0)	(1,0)	(1,0)	(1,0)	(1,0)	(1,0)	(1,0)	(1,0)	(1,0)	(1,0)	
L1D -234>	(318,95)	(64,1)	(104,1)	(114,39)	(220,4)	(14,0)	(8,0)	(122,0)	(223,0)	(146,16)	(66,0)	(-28,33)	(198,1)	(-94,1)	(244,1)	(78,0)	
L1D -233>	(303,1)	(1,1)	(1,0)	(1,0)	(1,0)	(1,0)	(1,0)	(1,0)	(1,0)	(1,0)	(1,0)	(1,0)	(1,0)	(1,0)	(1,0)	(1,0)	
L1D -232>	(324,21)	(126,34)	(260,4)	(338,8)	(92,12)	(228,10)	(8,6)	(192,3)	(-92,16)	(-88,3)	(88,3)	(28,51)	(10,1)	(120,4)	(-106,2)	(206,11)	
L1D -231>	(-1,1)	(1,0)	(1,0)	(1,0)	(1,0)	(1,0)	(1,0)	(1,0)	(1,0)	(1,0)	(1,0)	(1,0)	(1,0)	(1,0)	(1,0)	(1,0)	
L1D -230>	(302,1)	(115,110)	(-10,1)	(14,67)	(-8,2)	(214,7)	(160,1)	(-84,4)	(44,86)	(228,6)	(8,82)	(248,9)	(-12,10)	(338,4)	(304,4)	(190,9)	
L1D -229>	(1,0)	(1,0)	(1,0)	(1,0)	(1,0)	(1,0)	(1,0)	(1,0)	(1,0)	(1,0)	(1,0)	(1,0)	(1,0)	(1,0)	(1,0)	(1,0)	
L1D -228>	(208,1)	(200,2)	(314,5)	(250,17)	(226,8)	(144,2)	(302,4)	(152,1)	(252,2)	(96,8)	(128,6)	(162,116)	(-40,7)	(300,1)	(206,125)	(-124,3)	
L1D -227>	(-1,1)	(1,0)	(1,0)	(1,0)	(1,0)	(1,0)	(1,0)	(1,0)	(1,0)	(1,0)	(1,0)	(1,0)	(1,0)	(1,0)	(1,0)	(1,0)	
L1D -226>	(122,103)	(-28,0)	(-96,0)	(62,0)	(272,0)	(324,0)	(176,0)	(-134,101)	(164,0)	(1,0)	(1,0)	(1,0)	(1,0)	(1,0)	(1,0)	(1,0)	
L1D -225>	(318,1)	(1,0)	(1,0)	(1,0)	(1,0)	(1,0)	(1,0)	(1,0)	(1,0)	(1,0)	(1,0)	(1,0)	(1,0)	(1,0)	(1,0)	(1,0)	
L1D -224>	(78,9)	(-112,0)	(397,105)	(403,1)	(176,0)	(14,0)	(-96,3)	(170,0)	(250,0)	(-102,86)	(334,0)	(-64,0)	(142,0)	(28,0)	(-16,0)	(132,0)	
L1D -223>	(1,0)	(1,0)	(1,0)	(1,0)	(1,0)	(1,0)	(1,0)	(1,0)	(1,0)	(1,0)	(1,0)	(1,0)	(1,0)	(1,0)	(1,0)	(1,0)	
L1D -222>	(120,8)	(290,90)	(-80,4)	(84,1)	(232,3)	(30,5)	(112,5)	(152,1)	(332,73)	(-22,1)	(80,69)	(10,1)	(328,2)	(-10,1)	(244,1)	(-100,69)	
L1D -221>	(-62,1)	(14,29)	(-46,6)	(1,0)	(1,0)	(1,0)	(1,0)	(1,0)	(1,0)	(1,0)	(1,0)	(1,0)	(1,0)	(1,0)	(1,0)	(1,0)	
L1D -220>	(-10,42)	(162,96)	(98,13)	(74,1)	(-80,1)	(214,0)	(264,4)	(254,6)	(-106,10)	(166,59)	(84,2)	(48,25)	(-14,3)	(234,16)	(8,7)	(194,2)	
L1D -219>	(122,120)	(221,3)	(-1,0)	(14,0)	(1,0)	(1,0)	(1,0)	(1,0)	(1,0)	(1,0)	(1,0)	(1,0)	(1,0)	(1,0)	(1,0)	(1,0)	
L1D -218>	(232,84)	(-102,1)	(8,1)	(64,1)	(178,0)	(142,0)	(314,0)	(154,0)	(286,0)	(102,1)	(-94,0)	(149,0)	(114,0)	(204,0)	(212,1)	(234,2)	
L1D -217>	(-58,1)	(154,1)	(1,0)	(1,0)	(1,0)	(1,0)	(1,0)	(1,0)	(1,0)	(1,0)	(1,0)	(1,0)	(1,0)	(1,0)	(1,0)	(1,0)	
L1D -216>	(212,48)	(66,9)	(-10,3)	(34,3)	(94,6)	(193,116)	(2,23)	(233,2)	(-24,12)	(258,3)	(115,13)	(158,30)	(80,18)	(222,120)	(176,22)	(302,31)	
L1D -215>	(201,2)	(405,1)	(365,1)	(345,1)	(1,0)	(1,0)	(1,0)	(1,0)	(1,0)	(1,0)	(1,0)	(1,0)	(1,0)	(1,0)	(1,0)	(1,0)	
L1D -214>	(212,0)	(28,6)	(118,0)	(20,0)	(160,0)	(236,3)	(112,1)	(18,1)	(78,0)	(94,0)	(-100,0)	(188,1)	(138,1)	(222,73)	(208,4)	(115,2)	
L1D -213>	(95,5)	(102,7)	(361,3)	(351,4)	(319,2)	(167,1)	(265,1)	(1,0)	(1,0)	(1,0)	(1,0)	(1,0)	(1,0)	(1,0)	(1,0)	(1,0)	
L1D -212>	(238,65)	(174,0)	(8,1)	(168,69)	(-18,0)	(-116,6)	(304,7)	(150,2)	(94,0)	(208,60)	(206,0)	(-22,1)	(28,0)	(272,0)	(214,4)	(116,0)	
L1D -211>	(175,60)	(-1,2)	(2,7)	(24,17)	(1,0)	(1,0)	(1,0)	(1,0)	(1,0)	(1,0)	(1,0)	(1,0)	(1,0)	(1,0)	(1,0)	(1,0)	
L1D -210>	(175,7)	(28,66)	(24,1)	(96,2)	(-14,86)	(150,0)	(14,87)	(270,1)	(225,0)	(-142,2)	(156,0)	(174,1)	(-88,0)	(118,12)	(130,2)	(112,0)	
L1D -209>	(-12,28)	(138,4)	(1,0)	(1,0)	(1,0)	(1,0)	(1,0)	(1,0)	(1,0)	(1,0)	(1,0)	(1,0)	(1,0)	(1,0)	(1,0)	(1,0)	
L1D -208>	(28,50)	(102,3)	(258,72)	(-34,21)	(236,19)	(8,3)	(-106,6)	(230,11)	(-4,6)	(-80,2)	(98,4)	(49,1)	(178,1)	(-14,4)	(-108,4)	(206,11)	
L1D -207>	(-14,14)	(-60,12)	(110,26)	(1,0)	(1,0)	(1,0)	(1,0)	(1,0)	(1,0)	(1,0)	(1,0)	(1,0)	(1,0)	(1,0)	(1,0)	(1,0)	
L1D -206>	(28,15)	(56,13)	(-8,22)	(126,11)	(198,5)	(236,11)	(-28,1)	(48,13)	(102,2)	(-14,2)	(14,2)	(228,1)	(86,1)	(94,1)	(-24,97)	(10,21)	
L1D -205>	(128,1)	(277,6)	(13,1)	(1,0)	(1,0)	(1,0)	(1,0)	(1,0)	(1,0)	(1,0)	(1,0)	(1,0)	(1,0)	(1,0)	(1,0)	(1,0)	
L1D -204>	(88,0)	(8,71)	(200,0)	(-60,0)	(28,0)	(76,0)	(-14,0)	(240,3)	(14,0)	(158,0)	(296,0)	(102,0)	(64,0)	(4,0)	(232,23)	(36,0)	
L1D -203>	(1,0)	(1,0)	(1,0)	(1,0)	(1,0)	(1,0)	(1,0)	(1,0)	(1,0)	(1,0)	(1,0)	(1,0)	(1,0)	(1,0)	(1,0)	(1,0)	
L1D -202>	(308,3)	(106,6)	(42,121)	(-102,1)	(150,1)	(50,1)	(6,105)	(314,0)	(-134,0)	(330,1)	(210,93)	(128,0)	(-28,1)	(-166,0)	(312,1)	(100,0)	
L1D -201>	(143,1)	(355,1)	(1,0)	(1,0)	(1,0)	(1,0)	(1,0)	(1,0)	(1,0)	(1,0)	(1,0)	(1,0)	(1,0)	(1,0)	(1,0)	(1,0)	
L1D -200>	(80,87)	(-38,2)	(28,1)	(240,0)	(215,0)	(196,0)	(236,0)	(126,0)	(198,0)	(-62,2)	(94,43)	(174,0)	(258,0)	(14,1)	(-80,0)	(162,0)	
L1D -199>	(-8,23)	(1,0)	(1,0)	(1,0)	(1,0)	(1,0)	(1,0)	(1,0)	(1,0)	(1,0)	(1,0)	(1,0)	(1,0)	(1,0)	(1,0)	(1,0)	
L1D -198>	(160,14)	(-54,8)	(136,2)	(224,10)	(290,1)	(150,3)	(228,1)	(196,1)	(190,1)	(272,12)	(216,22)	(-84,34)	(234,84)	(244,10)	(188,1)	(1,0)	
L1D -197>	(0,76)	(1,0)	(1,0)	(1,0)	(1,0)	(1,0)	(1,0)	(1,0)	(1,0)	(1,0)	(1,0)	(1,0)	(1,0)	(1,0)	(1,0)	(1,0)	
L1D -196>	(338,0)	(38,16)	(202,0)	(192,3)	(278,1)	(90,0)	(-76,2)	(-78,1)	(84,82)	(326,1)	(238,1)	(130,6)	(12,33)	(-68,1)	(228,2)	(236,1)	
L1D -195>	(195,77)	(265,0)	(48,76)	(196,0)	(1,0)	(1,0)	(1,0)	(1,0)	(1,0)	(1,0)	(1,0)	(1,0)	(1,0)	(1,0)	(1,0)	(1,0)	
L1D -194>	(-54,2)	(190,3)	(308,7)	(104,107)	(12,4)	(-20,2)	(-72,3)	(150,6)	(8,1)	(152,8)	(124,3)	(-78,2)	(16,3)	(218,7)	(-22,1)	(181,5)	
L1D -193>	(224,31)	(-1,2)	(385,1)	(345,5)	(1,1)	(67,1)	(1,0)	(1,0)	(1,0)	(1,0)	(1,0)	(1,0)	(1,0)	(1,0)	(1,0)	(1,0)	
L1D -192>	(66,75)	(80,1)	(-42,0)	(130,0)	(246,0)	(191,0)	(-1,0)	(192,0)	(195,0)	(190,0)	(193,0)	(-24,0)	(-23,0)	(156,9)	(74,0)	(-68,0)	
L1D -191>	(162,1)	(1,0)	(1,0)	(1,0)	(1,0)	(1,0)	(1,0)	(1,0)	(1,0)	(1,0)	(1,0)	(1,0)	(1,0)	(1,0)	(1,0)	(1,0)	
L1D -190>	(188,116)	(132,0)	(16,0)	(208,4)	(254,12)	(14,2)	(260,0)	(-10,0)	(124,0)	(338,0)	(318,1)	(106,1)	(84,1)	(10,0)	(136,9)	(128,8)	
L1D -189>	(1,0)	(1,0)	(1,0)	(1,0)	(1,0)	(1,0)	(1,0)	(1,0)	(1,0)	(1,0)	(1,0)	(1,0)	(1,0)	(1,0)	(1,0)	(1,0)	
L1D -188>	(106,2)	(66,1)	(164,6)	(254,2)	(260,2)	(-75,1)	(100,100)	(262,8)	(20,3)	(-15,1)	(-46,3)	(28,26)	(150,9)	(-76,73)	(228,4)	(286,29)	
L1D -187>	(-12,74)	(9,13)	(-96,16)	(1,0)	(1,0)	(1,0)	(1,0)	(1,0)	(1,0)	(1,0)	(1,0)	(1,0)	(1,0)	(1,0)	(1,0)	(1,0)	
L1D -186>	(-42,0)	(-122,31)	(-76,2)	(-46,10)	(212,67)	(190,0)	(-22,1)	(214,1)	(112,0)	(218,0)	(-2,0)	(-8,0)	(160,0)	(267,121)	(102,20)	(-44,1)	
L1D -185>	(1,0)	(150,0)	(215,0)	(106,66)	(138,1)	(1,0)	(1,0)	(1,0)	(1,0)	(1,0)	(1,0)	(1,0)	(1,0)	(1,0)	(1,0)	(1,0)	
L1D -184>	(110,68)	(210,1)	(-46,2)	(72,3)	(-8,2)	(194,11)	(12,9)	(180,60)	(186,1)	(242,1)	(-12,0)	(-108,1)	(212,4)	(68,5)	(118,1)	(-16,2)	
L1D -183>	(38,12)	(122,20)	(5,37)	(8,9)	(161,10)	(-1,2)	(1,0)	(1,0)	(1,0)	(1,0)	(1,0)	(1,0)	(1,0)	(1,0)	(1,0)	(1,0)	
L1D -182>	(132,1)	(-1,1)	(106,3)	(-132,111)	(-36,113)	(-136,4)	(159,0)	(24,1)	(-46,7)	(38,41)	(14,0)	(208,0)	(161,1)	(-66,36)	(-2,1)	(160,3)	
L1D -181>	(87,3)	(-1,88)	(213,13)	(301,10)	(95,47)	(361,28)	(265,49)	(351,3)	(160,18)	(293,16)	(159,4)	(385,5)	(67,7)	(317,3)	(319,1)	(1,0)	
L1D -180>	(66,15)	(156,4)	(8,98)	(-132,2)	(82,9)	(-138,66)	(170,1)	(50,1)	(-30,92)	(306,1)	(208,100)	(160,24)	(112,95)	(178,5)	(234,1)	(-158,1)	
L1D -179>	(115,7)	(-40,80)	(1,0)	(1,0)	(1,0)	(1,0)	(1,0)	(1,0)	(1,0)	(1,0)	(1,0)	(1,0)	(1,0)	(1,0)	(1,0)	(1,0)	
L1D -178>	(102,67)	(-28,0)	(180,0)	(172,0)	(96,0)	(48,7)	(204,1)	(134,0)	(232,0)	(-138,0)	(324,0)	(277,0)	(176,0)	(270,1)	(-88,0)	(136,68)	
L1D -177>	(244,26)	(26,2)	(272,2)	(154,1)	(173,5)	(215,3)	(171,1)	(1,0)	(1,0)	(1,0)	(1,0)	(1,0)	(1,0)	(1,0)	(1,0)	(1,0)	
L1D -176>	(193,1)	(4,7)	(268,6)	(175,0)	(353,0)	(-14,0)	(344,1)	(2,1)	(345,2)	(348,2)	(212,0)	(-168,0)	(172,0)	(347,102)	(-98,0)	(170,0)	
L1D -175>	(4,89)	(12,10)	(344,0)	(1,0)	(172,15)	(3,3)	(-172,0)	(-170,1)	(343,1)	(-8,3)	(180,1)	(2,7)	(174,0)	(176,1)	(10,0)	(-169,6)	
L1D -174>	(44,1)	(1,1)	(32,15)	(364,0)	(-172,50)	(173,99)	(4,11)	(344,7)	(343,4)	(342,1)	(3,36)	(-170,2)	(-1,0)	(-169,2)	(172,1)	(2,2)	
L1D -173>	(173,65)	(344,65)	(171,5)	(170,76)	(174,25)	(-173,17)	(-172,32)	(3,3)	(1,24)	(-1,14)	(343,14)	(347,1)	(172,123)	(2,1)	(345,2)	(-171,15)	
L1D -172>	(170,5)	(-3,11)	(-1,7)	(1,12)	(-224,17)	(173,95)	(-169,1)	(345,27)	(171,37)	(-173,16)	(343,3)	(-171,3)	(-172,12)	(347,3)	(169,31)	(-90,4)	
L1D -171>	(126,11)	(170,71)	(-3,15)	(2,3)	(173,25)	(168,11)	(344,25)	(-173,69)	(-2,31)	(172,78)	(-1,91)	(175,1)	(-172,37)	(174,6)	(1,59)	(0,14)	
L1D -170>	(-3,11)	(-2,1)	(152,1)	(342,10)	(173,124)	(174,27)	(-110,23)	(-1,51)	(-172,51)	(-4,8)	(180,26)	(344,2)	(171,2)	(1,3)	(169,10)	(172,81)	
L1D -169>	(1,2)	(-1,42)	(171,104)	(-172,12)	(174,0)	(172,1)	(168,1)	(173,1)	(97,0)	(-171,0)	(-175,0)	(-4,0)	(344,0)	(341,0)	(170,0)	(342,0)	
L1D -168>	(175,1)	(-88,1)	(172,53)	(169,44)	(158,111)	(112,1)	(-4,5)	(344,1)	(337,4)	(-172,1)	(182,1)	(-176,2)	(341,0)	(56,0)	(40,4)	(118,0)	
L1D -167>	(361,22)	(95,76)	(-172,30)	(172,1)	(171,1)	(-1,6)	(170,1)	(75,3)	(-2,1)	(1,0)	(1,0)	(1,0)	(1,0)	(1,0)	(1,0)	(1,0)	
L1D -166>	(114,2)	(-181,1)	(120,1)	(8,1)	(-172,0)	(-22,0)	(42,0)	(32,0)	(268,0)	(0,0)	(360,0)	(-106,2)	(220,6)	(26,2)	(214,106)	(136,0)	
L1D -165>	(136,1)	(-1,103)	(1,43)	(172,93)	(9,3)	(-172,28)	(-2,22)	(342,2)	(171,1)	(344,6)	(2,2)	(1,0)	(1,0)	(1,0)	(1,0)	(1,0)	
L1D -164>	(114,72)	(120,0)	(212,0)	(13,5)	(200,0)	(62,1)	(170,0)	(166,0)	(1,0)	(1,0)	(1,0)	(1,0)	(1,0)	(1,0)	(1,0)	(1,0)	
L1D -163>	(1,115)	(-20,3)	(171,9)	(-1,1)	(-12,0)	(1,0)	(1,0)	(1,0)	(1,0)	(1,0)	(1,0)	(1,0)	(1,0)	(1,0)	(1,0)	(1,0)	
L1D -162>	(-1,0)	(238,80)	(-148,3)	(226,1)	(136,1)	(76,0)	(-136,0)	(180,0)	(-58,1)	(-38,76)	(148,0)	(-70,0)	(-64,3)	(-2,16)	(11,3)	(-56,0)	
L1D -161>	(32,2)	(-110,14)	(21,1)	(5,12)	(-1,1)	(-42,1)	(72,1)	(1,0)	(1,0)	(1,0)	(1,0)	(1,0)	(1,0)	(1,0)	(1,0)	(1,0)	
L1D -160>	(256,0)	(2,0)	(188,0)	(234,0)	(-102,0)	(116,0)	(80,0)	(98,0)	(246,0)	(-8,0)	(-100,64)	(28,0)	(145,0)	(12,0)	(-64,67)	(-98,0)	
L1D -159>	(95,110)	(9,44)	(3,14)	(18,1)	(1,0)	(1,0)	(1,0)	(1,0)	(1,0)	(1,0)	(1,0)	(1,0)	(1,0)	(1,0)	(1,0)	(1,0)	
L1D -158>	(66,4)	(-64,4)	(20,1)	(84,1)	(-164,1)	(152,7)	(-8,1)	(48,1)	(-48,0)	(188,92)	(150,1)	(-124,0)	(144,2)	(126,0)	(162,1)	(100,1)	
L1D -157>	(-126,8)	(-1,2)	(1,0)	(1,0)	(1,0)	(1,0)	(1,0)	(1,0)	(1,0)	(1,0)	(1,0)	(1,0)	(1,0)	(1,0)	(1,0)	(1,0)	
L1D -156>	(28,5)	(142,2)	(-26,6)	(88,1)	(102,3)	(152,1)	(232,1)	(188,1)	(-100,76)	(242,63)	(104,7)	(136,53)	(-6,1)	(-68,0)	(18,3)	(106,0)	
L1D -155>	(1,0)	(1,0)	(1,0)	(1,0)	(1,0)	(1,0)	(1,0)	(1,0)	(1,0)	(1,0)	(1,0)	(1,0)	(1,0)	(1,0)	(1,0)	(1,0)	
L1D -154>	(188,5)	(210,115)	(34,114)	(303,1)	(140,6)	(118,5)	(138,2)	(-12,100)	(8,3)	(124,2)	(260,1)	(10,1)	(96,14)	(130,1)	(-102,13)	(122,7)	
L1D -153>	(64,1)	(1,0)	(1,0)	(1,0)	(1,0)	(1,0)	(1,0)	(1,0)	(1,0)	(1,0)	(1,0)	(1,0)	(1,0)	(1,0)	(1,0)	(1,0)	
L1D -152>	(-122,81)	(96,2)	(-136,2)	(-78,0)	(-4,0)	(68,0)	(88,0)	(390,0)	(-100,0)	(226,0)	(-134,0)	(-90,0)	(118,0)	(148,0)	(1,0)	(1,0)	
L1D -151>	(122,1)	(90,1)	(-96,1)	(-5,36)	(-20,43)	(-21,15)	(8,1)	(-1,1)	(1,0)	(1,0)	(1,0)	(1,0)	(1,0)	(1,0)	(1,0)	(1,0)	
L1D -150>	(-192,1)	(258,1)	(194,1)	(-50,1)	(210,4)	(208,0)	(260,0)	(352,120)	(220,3)	(28,1)	(-46,2)	(42,2)	(206,1)	(162,0)	(-174,0)	(138,3)	
L1D -149>	(-9,0)	(13,0)	(88,88)	(-154,2)	(15,2)	(-8,4)	(106,0)	(1,0)	(1,0)	(1,0)	(1,0)	(1,0)	(1,0)	(1,0)	(1,0)	(1,0)	
L1D -148>	(326,98)	(212,11)	(304,1)	(216,8)	(-122,116)	(196,0)	(218,1)	(208,0)	(206,1)	(-148,0)	(26,0)	(-100,2)	(160,1)	(150,0)	(42,0)	(258,2)	
L1D -147>	(-121,3)	(154,1)	(48,2)	(262,11)	(-125,55)	(-12,108)	(13,1)	(217,3)	(-1,1)	(1,0)	(1,0)	(1,0)	(1,0)	(1,0)	(1,0)	(1,0)	
L1D -146>	(-100,119)	(236,5)	(36,2)	(26,1)	(106,11)	(148,97)	(-28,3)	(30,16)	(-76,7)	(244,1)	(48,15)	(152,1)	(-96,7)	(2,4)	(-84,11)	(1,11)	
L1D -145>	(0,77)	(82,0)	(-1,0)	(212,0)	(87,0)	(-32,0)	(1,0)	(1,0)	(1,0)	(1,0)	(1,0)	(1,0)	(1,0)	(1,0)	(1,0)	(1,0)	
L1D -144>	(38,84)	(-86,0)	(-170,13)	(236,84)	(-88,0)	(-32,0)	(-72,3)	(28,0)	(66,65)	(-120,0)	(-74,0)	(-78,0)	(210,0)	(36,0)	(-10,1)	(308,0)	
L1D -143>	(113,4)	(-21,116)	(-8,0)	(1,0)	(1,0)	(1,0)	(1,0)	(1,0)	(1,0)	(1,0)	(1,0)	(1,0)	(1,0)	(1,0)	(1,0)	(1,0)	
L1D -142>	(154,9)	(-96,2)	(-178,83)	(156,2)	(-106,0)	(202,0)	(18,3)	(-6,4)	(-1,0)	(244,0)	(-76,3)	(32,1)	(-32,0)	(76,0)	(49,0)	(232,2)	
L1D -141>	(139,1)	(1,0)	(1,0)	(1,0)	(1,0)	(1,0)	(1,0)	(1,0)	(1,0)	(1,0)	(1,0)	(1,0)	(1,0)	(1,0)	(1,0)	(1,0)	
L1D -140>	(-14,52)	(-92,6)	(26,66)	(-21,61)	(170,3)	(96,3)	(13,0)	(102,5)	(-50,32)	(175,1)	(184,1)	(-56,1)	(-25,1)	(242,1)	(150,13)	(50,45)	
L1D -139>	(-4,89)	(1,119)	(-1,7)	(12,5)	(-25,14)	(-17,0)	(138,0)	(137,0)	(1,0)	(1,0)	(1,0)	(1,0)	(1,0)	(1,0)	(1,0)	(1,0)	
L1D -138>	(236,59)	(-36,1)	(-181,1)	(84,6)	(330,2)	(232,69)	(-6,72)	(-12,3)	(66,9)	(-154,1)	(138,0)	(254,20)	(-2,1)	(188,1)	(294,1)	(-98,54)	
L1D -137>	(232,99)	(139,1)	(12,16)	(-8,37)	(13,2)	(-12,2)	(-1,1)	(134,1)	(1,1)	(-9,1)	(1,0)	(1,0)	(1,0)	(1,0)	(1,0)	(1,0)	
L1D -136>	(-180,125)	(-13,122)	(28,1)	(254,1)	(1,1)	(137,0)	(42,7)	(-56,0)	(-108,2)	(236,0)	(126,2)	(104,0)	(14,3)	(-94,4)	(232,2)	(-10,3)	
L1D -135>	(-60,1)	(128,5)	(318,1)	(93,1)	(139,1)	(11,1)	(134,1)	(138,1)	(1,0)	(1,0)	(1,0)	(1,0)	(1,0)	(1,0)	(1,0)	(1,0)	
L1D -134>	(-13,79)	(-132,1)	(72,0)	(162,63)	(11,0)	(120,0)	(152,0)	(102,0)	(22,58)	(-146,0)	(140,0)	(336,0)	(216,2)	(298,86)	(118,1)	(12,0)	
L1D -133>	(220,1)	(19,1)	(228,5)	(1,3)	(131,2)	(136,1)	(135,1)	(1,0)	(1,0)	(1,0)	(1,0)	(1,0)	(1,0)	(1,0)	(1,0)	(1,0)	
L1D -132>	(-6,1)	(276,2)	(-73,2)	(-108,6)	(82,100)	(100,1)	(110,82)	(70,74)	(264,1)	(-42,4)	(-82,14)	(78,1)	(250,1)	(267,2)	(120,1)	(128,2)	
L1D -131>	(-127,7)	(132,2)	(1,2)	(1,0)	(1,0)	(1,0)	(1,0)	(1,0)	(1,0)	(1,0)	(1,0)	(1,0)	(1,0)	(1,0)	(1,0)	(1,0)	
L1D -130>	(14,5)	(-92,9)	(-16,71)	(-6,0)	(268,2)	(190,0)	(20,5)	(278,0)	(88,0)	(122,0)	(12,1)	(242,0)	(10,1)	(188,70)	(128,0)	(56,80)	
L1D -129>	(46,44)	(131,1)	(-78,1)	(1,0)	(1,0)	(1,0)	(1,0)	(1,0)	(1,0)	(1,0)	(1,0)	(1,0)	(1,0)	(1,0)	(1,0)	(1,0)	
L1D -128>	(142,48)	(-1,66)	(70,5)	(132,1)	(14,0)	(318,0)	(314,1)	(196,0)	(80,0)	(126,0)	(144,0)	(22,0)	(226,0)	(266,0)	(-54,3)	(16,2)	
L1D -127>	(166,110)	(38,1)	(127,1)	(-22,0)	(-88,0)	(-1,0)	(-98,0)	(-140,1)	(184,4)	(122,2)	(1,0)	(1,0)	(1,0)	(1,0)	(1,0)	(1,0)	
L1D -126>	(32,1)	(-1,81)	(64,0)	(-66,0)	(-180,0)	(178,2)	(70,10)	(24,35)	(-54,0)	(-6,0)	(129,0)	(16,0)	(121,0)	(127,0)	(-46,61)	(172,52)	
L1D -125>	(-1,1)	(-10,1)	(226,44)	(240,25)	(1,0)	(1,0)	(1,0)	(1,0)	(1,0)	(1,0)	(1,0)	(1,0)	(1,0)	(1,0)	(1,0)	(1,0)	
L1D -124>	(110,1)	(-80,1)	(-13,121)	(-30,0)	(-21,1)	(2,0)	(32,1)	(-42,0)	(220,2)	(48,0)	(-2,0)	(-26,2)	(216,114)	(-6,1)	(112,4)	(130,98)	
L1D -123>	(332,76)	(25,2)	(236,7)	(-2,0)	(82,0)	(-1,0)	(1,0)	(-79,0)	(1,0)	(1,0)	(1,0)	(1,0)	(1,0)	(1,0)	(1,0)	(1,0)	
L1D -122>	(218,114)	(14,1)	(-96,123)	(242,4)	(-92,8)	(-5,2)	(-28,22)	(-94,111)	(246,5)	(332,121)	(44,101)	(150,81)	(180,104)	(154,111)	(-122,4)	(78,19)	
L1D -121>	(80,3)	(-27,78)	(-2,0)	(76,1)	(-267,0)	(70,0)	(254,0)	(-26,1)	(236,0)	(1,0)	(1,0)	(1,0)	(1,0)	(1,0)	(1,0)	(1,0)	
L1D -120>	(38,2)	(24,121)	(314,1)	(-114,1)	(146,3)	(136,1)	(-174,11)	(62,2)	(116,1)	(352,3)	(-94,7)	(36,3)	(162,2)	(-148,0)	(-88,1)	(48,2)	
L1D -119>	(-1,0)	(25,99)	(92,0)	(1,0)	(1,0)	(1,0)	(1,0)	(1,0)	(1,0)	(1,0)	(1,0)	(1,0)	(1,0)	(1,0)	(1,0)	(1,0)	
L1D -118>	(226,1)	(68,98)	(78,3)	(308,1)	(152,1)	(86,2)	(-94,1)	(-154,1)	(-14,1)	(144,14)	(-102,80)	(-66,3)	(120,1)	(149,6)	(-88,7)	(34,2)	
L1D -117>	(1,0)	(1,0)	(1,0)	(1,0)	(1,0)	(1,0)	(1,0)	(1,0)	(1,0)	(1,0)	(1,0)	(1,0)	(1,0)	(1,0)	(1,0)	(1,0)	
L1D -116>	(216,3)	(218,7)	(122,19)	(-8,1)	(66,1)	(136,2)	(212,6)	(118,102)	(284,1)	(-30,1)	(110,1)	(-194,1)	(166,1)	(24,3)	(-64,1)	(-102,2)	
L1D -115>	(87,85)	(201,0)	(101,1)	(185,0)	(-41,0)	(214,0)	(1,0)	(1,0)	(1,0)	(1,0)	(1,0)	(1,0)	(1,0)	(1,0)	(1,0)	(1,0)	
L1D -114>	(130,96)	(220,1)	(-200,0)	(16,1)	(110,0)	(-94,70)	(120,0)	(112,0)	(-96,3)	(82,2)	(-42,0)	(139,0)	(122,1)	(-66,3)	(-2,0)	(-14,1)	
L1D -113>	(25,1)	(152,10)	(-1,1)	(1,0)	(1,0)	(1,0)	(1,0)	(1,0)	(1,0)	(1,0)	(1,0)	(1,0)	(1,0)	(1,0)	(1,0)	(1,0)	
L1D -112>	(-220,7)	(-122,64)	(175,82)	(-88,14)	(-56,6)	(66,4)	(18,1)	(-72,12)	(49,24)	(-100,19)	(-94,4)	(64,10)	(164,1)	(166,4)	(-16,22)	(180,30)	
L1D -111>	(1,0)	(1,0)	(1,0)	(1,0)	(1,0)	(1,0)	(1,0)	(1,0)	(1,0)	(1,0)	(1,0)	(1,0)	(1,0)	(1,0)	(1,0)	(1,0)	
L1D -110>	(100,4)	(127,85)	(12,1)	(-196,1)	(302,82)	(262,4)	(352,2)	(234,8)	(180,4)	(-32,4)	(118,103)	(-48,2)	(218,2)	(-108,86)	(-20,5)	(-16,82)	
L1D -109>	(-26,2)	(179,33)	(204,66)	(-2,5)	(-40,2)	(222,2)	(82,1)	(1,0)	(1,0)	(1,0)	(1,0)	(1,0)	(1,0)	(1,0)	(1,0)	(1,0)	
L1D -108>	(118,116)	(8,1)	(-8,1)	(-14,1)	(-150,2)	(96,37)	(210,90)	(74,3)	(-2,1)	(290,4)	(-136,1)	(15,7)	(-242,6)	(212,4)	(324,4)	(82,74)	
L1D -107>	(-4,2)	(-2,1)	(1,0)	(1,0)	(1,0)	(1,0)	(1,0)	(1,0)	(1,0)	(1,0)	(1,0)	(1,0)	(1,0)	(1,0)	(1,0)	(1,0)	
L1D -106>	(78,1)	(80,3)	(150,1)	(-50,15)	(96,106)	(-94,80)	(-90,2)	(-6,1)	(202,1)	(10,2)	(-126,1)	(14,2)	(260,9)	(268,5)	(122,20)	(76,7)	
L1D -105>	(-20,77)	(-2,0)	(1,0)	(1,0)	(1,0)	(1,0)	(1,0)	(1,0)	(1,0)	(1,0)	(1,0)	(1,0)	(1,0)	(1,0)	(1,0)	(1,0)	
L1D -104>	(96,115)	(-36,1)	(310,1)	(108,0)	(214,0)	(314,2)	(-2,8)	(-26,0)	(200,3)	(12,2)	(64,0)	(66,26)	(-122,1)	(136,27)	(74,1)	(72,2)	
L1D -103>	(-2,4)	(169,3)	(95,1)	(319,1)	(1,0)	(1,0)	(1,0)	(1,0)	(1,0)	(1,0)	(1,0)	(1,0)	(1,0)	(1,0)	(1,0)	(1,0)	
L1D -102>	(86,116)	(212,1)	(116,25)	(184,11)	(234,62)	(-234,11)	(-80,18)	(74,27)	(326,4)	(66,87)	(4,6)	(178,8)	(58,8)	(127,2)	(256,3)	(-36,56)	
L1D -101>	(113,2)	(-121,23)	(201,1)	(-41,1)	(1,0)	(1,0)	(1,0)	(1,0)	(1,0)	(1,0)	(1,0)	(1,0)	(1,0)	(1,0)	(1,0)	(1,0)	
L1D -100>	(308,113)	(288,92)	(232,1)	(108,115)	(330,1)	(-146,1)	(-128,3)	(14,3)	(220,83)	(68,1)	(218,1)	(-64,2)	(-8,65)	(-52,1)	(276,3)	(28,3)	
L1D -99>	(9,12)	(-2,4)	(-168,3)	(103,2)	(95,3)	(-123,80)	(1,0)	(1,0)	(1,0)	(1,0)	(1,0)	(1,0)	(1,0)	(1,0)	(1,0)	(1,0)	
L1D -98>	(152,1)	(194,2)	(-22,71)	(216,2)	(170,1)	(236,3)	(178,4)	(-112,17)	(66,5)	(-262,1)	(291,2)	(-72,3)	(-92,33)	(-167,4)	(84,12)	(-188,8)	
L1D -97>	(-186,7)	(-105,0)	(-2,0)	(101,0)	(0,0)	(95,0)	(4,0)	(-170,65)	(32,2)	(68,1)	(-122,0)	(1,0)	(1,0)	(1,0)	(1,0)	(1,0)	
L1D -96>	(132,7)	(20,107)	(130,97)	(16,13)	(-98,20)	(-63,66)	(206,1)	(216,104)	(-112,12)	(-16,2)	(208,6)	(100,89)	(314,3)	(10,2)	(126,2)	(148,2)	
L1D -95>	(93,4)	(-2,56)	(29,41)	(97,26)	(9,22)	(-4,4)	(17,6)	(361,41)	(263,10)	(1,0)	(1,0)	(1,0)	(1,0)	(1,0)	(1,0)	(1,0)	
L1D -94>	(2,70)	(96,1)	(28,60)	(30,2)	(-70,79)	(198,8)	(240,1)	(62,1)	(230,0)	(216,6)	(172,0)	(-8,1)	(312,1)	(-6,24)	(-32,41)	(-244,2)	
L1D -93>	(-2,35)	(-174,3)	(129,2)	(-4,1)	(-52,11)	(-212,1)	(1,1)	(1,0)	(1,0)	(1,0)	(1,0)	(1,0)	(1,0)	(1,0)	(1,0)	(1,0)	
L1D -92>	(210,64)	(24,46)	(-14,6)	(-293,4)	(20,87)	(160,11)	(28,27)	(18,7)	(-50,11)	(26,12)	(52,18)	(84,61)	(54,2)	(-28,6)	(-30,93)	(96,92)	
L1D -91>	(85,5)	(-2,1)	(363,2)	(93,1)	(321,1)	(345,1)	(1,0)	(1,0)	(1,0)	(1,0)	(1,0)	(1,0)	(1,0)	(1,0)	(1,0)	(1,0)	
L1D -90>	(220,105)	(120,5)	(182,1)	(36,2)	(68,2)	(264,1)	(184,8)	(-34,122)	(-50,1)	(88,2)	(254,8)	(-176,5)	(-12,1)	(314,3)	(260,3)	(-174,1)	
L1D -89>	(9,1)	(6,11)	(-8,75)	(15,34)	(12,11)	(-9,3)	(-3,1)	(1,0)	(1,0)	(1,0)	(1,0)	(1,0)	(1,0)	(1,0)	(1,0)	(1,0)	
L1D -88>	(48,75)	(-124,2)	(16,1)	(72,85)	(92,2)	(-120,81)	(276,2)	(-32,62)	(242,6)	(232,14)	(-12,76)	(-8,5)	(-10,0)	(-246,6)	(28,94)	(137,4)	
L1D -87>	(70,19)	(32,11)	(1,0)	(1,0)	(1,0)	(1,0)	(1,0)	(1,0)	(1,0)	(1,0)	(1,0)	(1,0)	(1,0)	(1,0)	(1,0)	(1,0)	
L1D -86>	(302,0)	(-58,79)	(-120,2)	(-44,8)	(13,2)	(8,4)	(54,1)	(-76,0)	(-26,5)	(-88,59)	(10,7)	(-294,74)	(-14,3)	(214,3)	(82,0)	(168,24)	
L1D -85>	(-1,79)	(12,37)	(345,0)	(102,0)	(1,0)	(1,0)	(1,0)	(1,0)	(1,0)	(1,0)	(1,0)	(1,0)	(1,0)	(1,0)	(1,0)	(1,0)	
L1D -84>	(172,63)	(-102,5)	(302,100)	(13,68)	(254,1)	(98,10)	(-236,37)	(-238,9)	(-14,3)	(18,83)	(82,8)	(232,1)	(106,3)	(-204,20)	(86,1)	(314,9)	
L1D -83>	(81,108)	(-1,86)	(83,65)	(0,2)	(385,0)	(345,0)	(1,0)	(1,0)	(1,0)	(1,0)	(1,0)	(1,0)	(1,0)	(1,0)	(1,0)	(1,0)	
L1D -82>	(-7,0)	(30,1)	(-228,0)	(1,44)	(-2,5)	(84,67)	(88,2)	(2,15)	(192,0)	(-222,1)	(-110,0)	(60,19)	(78,12)	(246,3)	(-41,7)	(308,0)	
L1D -81>	(81,113)	(0,1)	(1,0)	(1,0)	(1,0)	(1,0)	(1,0)	(1,0)	(1,0)	(1,0)	(1,0)	(1,0)	(1,0)	(1,0)	(1,0)	(1,0)	
L1D -80>	(96,46)	(246,0)	(138,91)	(318,3)	(-41,0)	(188,6)	(260,45)	(186,0)	(82,9)	(-2,2)	(280,0)	(-130,1)	(1,15)	(252,0)	(-36,0)	(-7,49)	
L1D -79>	(22,81)	(78,1)	(203,1)	(-1,1)	(1,0)	(1,0)	(1,0)	(1,0)	(1,0)	(1,0)	(1,0)	(1,0)	(1,0)	(1,0)	(1,0)	(1,0)	
L1D -78>	(278,118)	(-7,21)	(-138,1)	(14,11)	(-44,5)	(24,6)	(-80,26)	(116,41)	(-30,8)	(128,112)	(246,85)	(-16,15)	(-2,7)	(238,3)	(2,9)	(192,2)	
L1D -77>	(13,87)	(-12,0)	(1,0)	(1,0)	(1,0)	(1,0)	(1,0)	(1,0)	(1,0)	(1,0)	(1,0)	(1,0)	(1,0)	(1,0)	(1,0)	(1,0)	
L1D -76>	(-130,13)	(-40,0)	(136,1)	(-13,63)	(338,59)	(194,1)	(-138,60)	(132,1)	(-48,67)	(84,0)	(-21,1)	(-1,0)	(314,3)	(98,2)	(74,0)	(-10,0)	
L1D -75>	(361,17)	(103,16)	(95,3)	(-1,1)	(1,0)	(1,0)	(1,0)	(1,0)	(1,0)	(1,0)	(1,0)	(1,0)	(1,0)	(1,0)	(1,0)	(1,0)	
L1D -74>	(2,1)	(-36,33)	(44,29)	(-128,69)	(6,68)	(336,0)	(-14,1)	(-96,1)	(130,2)	(98,1)	(72,17)	(-168,4)	(14,3)	(314,56)	(-112,8)	(84,1)	
L1D -73>	(-13,0)	(67,122)	(-177,0)	(-20,3)	(-21,3)	(2,0)	(-115,0)	(1,0)	(1,0)	(1,0)	(1,0)	(1,0)	(1,0)	(1,0)	(1,0)	(1,0)	
L1D -72>	(-48,3)	(-30,1)	(15,9)	(168,8)	(208,2)	(-7,86)	(266,3)	(-122,78)	(26,10)	(-92,2)	(-228,2)	(-98,5)	(62,3)	(-16,61)	(72,91)	(34,17)	
L1D -71>	(71,18)	(-138,15)	(-150,8)	(-40,1)	(-142,1)	(-20,64)	(-21,50)	(-1,1)	(1,0)	(1,0)	(1,0)	(1,0)	(1,0)	(1,0)	(1,0)	(1,0)	
L1D -70>	(-70,76)	(72,1)	(308,1)	(-188,7)	(-120,0)	(22,0)	(154,0)	(-80,0)	(118,8)	(336,76)	(106,1)	(30,38)	(384,1)	(-38,4)	(28,76)	(35,58)	
L1D -69>	(1,39)	(26,0)	(95,2)	(12,107)	(-1,0)	(1,0)	(1,0)	(1,0)	(1,0)	(1,0)	(1,0)	(1,0)	(1,0)	(1,0)	(1,0)	(1,0)	
L1D -68>	(308,5)	(-2,92)	(70,1)	(11,8)	(-222,2)	(84,0)	(-4,22)	(-6,5)	(48,9)	(336,0)	(22,1)	(114,3)	(170,3)	(-1,1)	(106,2)	(186,6)	
L1D -67>	(-138,65)	(1,35)	(213,0)	(-108,0)	(12,18)	(1,0)	(1,0)	(1,0)	(1,0)	(1,0)	(1,0)	(1,0)	(1,0)	(1,0)	(1,0)	(1,0)	
L1D -66>	(184,98)	(-148,11)	(96,21)	(66,1)	(92,21)	(188,2)	(26,7)	(12,101)	(-26,115)	(194,92)	(-212,11)	(-176,71)	(20,7)	(84,26)	(298,94)	(-28,11)	
L1D -65>	(-122,10)	(-116,44)	(-154,31)	(-32,29)	(1,0)	(1,0)	(1,0)	(1,0)	(1,0)	(1,0)	(1,0)	(1,0)	(1,0)	(1,0)	(1,0)	(1,0)	
L1D -64>	(66,7)	(62,126)	(4,4)	(-244,102)	(-222,2)	(-136,11)	(2,4)	(-146,2)	(-254,1)	(26,110)	(10,1)	(-116,1)	(88,20)	(-115,6)	(79,4)	(90,92)	
L1D -63>	(141,77)	(95,57)	(-184,9)	(-177,0)	(131,0)	(-154,0)	(0,0)	(-125,0)	(-145,0)	(85,0)	(345,0)	(-137,0)	(1,0)	(1,0)	(1,0)	(1,0)	
L1D -62>	(-32,96)	(-8,4)	(118,68)	(90,43)	(4,63)	(-69,1)	(-150,2)	(56,7)	(54,19)	(-72,2)	(-190,78)	(-198,1)	(48,5)	(156,1)	(-128,1)	(102,2)	
L1D -61>	(-1,87)	(343,6)	(-84,68)	(-242,20)	(-88,10)	(-186,59)	(-122,40)	(344,15)	(18,10)	(10,43)	(1,0)	(1,0)	(1,0)	(1,0)	(1,0)	(1,0)	
L1D -60>	(290,0)	(52,3)	(-140,56)	(72,1)	(-8,69)	(54,0)	(-194,0)	(90,1)	(-196,66)	(-224,0)	(-206,0)	(-90,5)	(30,2)	(-10,2)	(240,0)	(254,0)	
L1D -59>	(-127,12)	(-7,15)	(321,1)	(1,0)	(1,0)	(1,0)	(1,0)	(1,0)	(1,0)	(1,0)	(1,0)	(1,0)	(1,0)	(1,0)	(1,0)	(1,0)	
L1D -58>	(-42,105)	(48,25)	(-198,1)	(-190,7)	(60,4)	(102,3)	(-58,25)	(118,31)	(-10,2)	(90,1)	(326,125)	(-18,92)	(-188,98)	(115,124)	(-126,93)	(-62,74)	
L1D -57>	(-127,2)	(-20,113)	(-23,106)	(-21,30)	(159,2)	(57,0)	(1,0)	(1,0)	(1,0)	(1,0)	(1,0)	(1,0)	(1,0)	(1,0)	(1,0)	(1,0)	
L1D -56>	(16,19)	(102,1)	(-184,0)	(-116,0)	(-28,0)	(72,0)	(120,1)	(182,0)	(-126,4)	(48,0)	(214,0)	(58,0)	(240,2)	(-88,3)	(294,88)	(40,4)	
L1D -55>	(133,81)	(-154,34)	(-3,12)	(13,1)	(-259,3)	(-13,1)	(-235,1)	(1,0)	(1,0)	(1,0)	(1,0)	(1,0)	(1,0)	(1,0)	(1,0)	(1,0)	
L1D -54>	(64,1)	(318,99)	(314,1)	(-160,1)	(-166,2)	(206,3)	(38,10)	(22,2)	(-24,3)	(76,4)	(-132,2)	(-140,1)	(146,5)	(-98,5)	(2,2)	(70,1)	
L1D -53>	(49,1)	(146,107)	(148,21)	(-122,11)	(1,0)	(1,0)	(1,0)	(1,0)	(1,0)	(1,0)	(1,0)	(1,0)	(1,0)	(1,0)	(1,0)	(1,0)	
L1D -52>	(196,1)	(-98,17)	(-265,1)	(-136,0)	(-32,11)	(-122,0)	(-46,11)	(47,0)	(-252,2)	(13,15)	(-220,1)	(-104,5)	(-76,1)	(-1,2)	(114,72)	(-114,2)	
L1D -51>	(116,1)	(0,1)	(1,0)	(1,0)	(1,0)	(1,0)	(1,0)	(1,0)	(1,0)	(1,0)	(1,0)	(1,0)	(1,0)	(1,0)	(1,0)	(1,0)	
L1D -50>	(272,79)	(-80,4)	(22,13)	(13,5)	(56,16)	(200,49)	(240,1)	(-68,1)	(-234,2)	(16,12)	(122,3)	(4,1)	(-70,4)	(10,5)	(136,60)	(-144,2)	
L1D -49>	(1,124)	(146,0)	(148,0)	(-88,0)	(12,64)	(-1,36)	(1,0)	(1,0)	(1,0)	(1,0)	(1,0)	(1,0)	(1,0)	(1,0)	(1,0)	(1,0)	
L1D -48>	(16,111)	(136,9)	(-26,5)	(46,87)	(-70,1)	(-148,8)	(180,3)	(-1,9)	(146,2)	(10,38)	(-2,113)	(8,2)	(-354,108)	(-80,104)	(-106,94)	(50,1)	
L1D -47>	(2,3)	(51,93)	(46,0)	(43,0)	(39,2)	(1,0)	(1,0)	(1,0)	(1,0)	(1,0)	(1,0)	(1,0)	(1,0)	(1,0)	(1,0)	(1,0)	
L1D -46>	(-92,105)	(68,17)	(266,102)	(-222,15)	(172,7)	(44,1)	(-234,42)	(51,6)	(-12,4)	(144,6)	(-108,93)	(-1,83)	(127,26)	(14,31)	(-284,6)	(50,94)	
L1D -45>	(129,4)	(144,3)	(-204,99)	(45,0)	(1,0)	(1,0)	(1,0)	(1,0)	(1,0)	(1,0)	(1,0)	(1,0)	(1,0)	(1,0)	(1,0)	(1,0)	
L1D -44>	(46,110)	(-108,3)	(42,2)	(172,3)	(50,7)	(18,8)	(-112,5)	(102,1)	(-6,17)	(-78,2)	(30,2)	(-354,1)	(122,1)	(-36,9)	(-100,5)	(-86,3)	
L1D -43>	(-92,101)	(-260,6)	(-26,1)	(44,1)	(-27,1)	(1,1)	(42,1)	(1,0)	(1,0)	(1,0)	(1,0)	(1,0)	(1,0)	(1,0)	(1,0)	(1,0)	
L1D -42>	(-4,19)	(-68,1)	(-78,1)	(148,1)	(42,1)	(-1,0)	(41,5)	(138,91)	(-188,1)	(14,0)	(48,1)	(-40,5)	(44,0)	(-130,0)	(45,1)	(-27,0)	
L1D -41>	(25,32)	(131,1)	(119,99)	(154,4)	(117,1)	(1,0)	(1,0)	(1,0)	(1,0)	(1,0)	(1,0)	(1,0)	(1,0)	(1,0)	(1,0)	(1,0)	
L1D -40>	(-152,105)	(-196,21)	(-60,28)	(15,12)	(42,6)	(-194,15)	(34,101)	(-202,77)	(221,1)	(-112,1)	(-2,83)	(246,5)	(-78,5)	(-30,10)	(-5,108)	(-228,5)	
L1D -39>	(25,25)	(131,0)	(-20,65)	(41,0)	(-3,0)	(39,0)	(45,0)	(-32,0)	(1,0)	(1,0)	(1,0)	(1,0)	(1,0)	(1,0)	(1,0)	(1,0)	
L1D -38>	(-62,27)	(-86,91)	(-162,1)	(-350,102)	(-66,109)	(-148,95)	(26,3)	(-18,56)	(-272,1)	(-228,1)	(-58,2)	(36,2)	(178,1)	(-2,1)	(1,121)	(14,113)	
L1D -37>	(150,9)	(182,4)	(1,3)	(-21,1)	(-86,1)	(-20,84)	(-13,3)	(1,0)	(1,0)	(1,0)	(1,0)	(1,0)	(1,0)	(1,0)	(1,0)	(1,0)	
L1D -36>	(48,108)	(-67,108)	(66,92)	(-290,71)	(-118,1)	(-120,1)	(264,3)	(56,52)	(-6,1)	(-72,13)	(-174,4)	(22,4)	(-222,1)	(-8,9)	(82,2)	(32,2)	
L1D -35>	(1,1)	(-171,116)	(-45,76)	(-35,16)	(-136,16)	(-1,2)	(33,1)	(32,1)	(1,0)	(1,0)	(1,0)	(1,0)	(1,0)	(1,0)	(1,0)	(1,0)	
L1D -34>	(16,0)	(-92,82)	(10,0)	(14,1)	(-2,17)	(-106,9)	(-234,81)	(-64,0)	(94,0)	(28,0)	(-318,0)	(-220,0)	(20,0)	(44,2)	(-316,2)	(-87,1)	
L1D -33>	(410,1)	(-158,1)	(-181,8)	(34,1)	(-1,3)	(1,0)	(1,0)	(1,0)	(1,0)	(1,0)	(1,0)	(1,0)	(1,0)	(1,0)	(1,0)	(1,0)	
L1D -32>	(36,82)	(58,69)	(-8,9)	(14,60)	(-86,5)	(248,5)	(-240,39)	(-100,1)	(-66,59)	(264,21)	(230,30)	(42,3)	(84,4)	(10,55)	(-2,13)	(-60,3)	
L1D -31>	(408,65)	(-1,87)	(-127,1)	(-12,1)	(-182,13)	(-211,7)	(-183,2)	(1,0)	(1,0)	(1,0)	(1,0)	(1,0)	(1,0)	(1,0)	(1,0)	(1,0)	
L1D -30>	(-10,1)	(-106,2)	(-62,24)	(-30,10)	(46,21)	(124,92)	(362,92)	(62,4)	(-6,2)	(-126,62)	(-8,24)	(112,80)	(-38,92)	(-96,2)	(-140,9)	(250,5)	
L1D -29>	(31,108)	(74,1)	(26,1)	(33,0)	(-34,0)	(17,84)	(-267,1)	(-1,0)	(-218,0)	(116,0)	(-162,0)	(-122,0)	(1,0)	(1,0)	(1,0)	(1,0)	
L1D -28>	(238,49)	(31,2)	(-74,50)	(52,1)	(-62,1)	(242,8)	(8,7)	(130,1)	(34,117)	(-56,91)	(110,1)	(160,20)	(-110,1)	(75,14)	(112,1)	(18,6)	
L1D -27>	(97,89)	(114,0)	(65,0)	(68,0)	(156,0)	(14,0)	(1,0)	(1,0)	(1,0)	(1,0)	(1,0)	(1,0)	(1,0)	(1,0)	(1,0)	(1,0)	
L1D -26>	(-76,1)	(248,1)	(118,1)	(-96,102)	(-52,82)	(-192,104)	(62,3)	(70,6)	(-64,16)	(294,1)	(-118,5)	(36,1)	(-82,2)	(-66,8)	(-80,4)	(358,1)	
L1D -25>	(13,91)	(9,13)	(18,2)	(8,12)	(-1,1)	(1,0)	(1,0)	(1,0)	(1,0)	(1,0)	(1,0)	(1,0)	(1,0)	(1,0)	(1,0)	(1,0)	
L1D -24>	(-80,22)	(-258,96)	(78,5)	(18,7)	(27,1)	(-6,4)	(3,68)	(12,5)	(338,21)	(-12,6)	(140,114)	(-170,7)	(230,3)	(22,1)	(9,40)	(16,8)	
L1D -23>	(18,89)	(290,7)	(25,89)	(-5,37)	(-52,19)	(182,12)	(-39,13)	(390,27)	(156,6)	(392,10)	(96,4)	(163,10)	(160,3)	(2,1)	(14,1)	(-17,0)	
L1D -22>	(96,10)	(56,1)	(38,67)	(254,66)	(326,56)	(-1,0)	(234,1)	(-94,1)	(104,9)	(126,2)	(86,2)	(-18,1)	(88,0)	(-272,1)	(-24,1)	(-68,3)	
L1D -21>	(13,57)	(8,75)	(-4,7)	(-1,5)	(5,120)	(96,1)	(18,17)	(15,1)	(144,2)	(6,11)	(312,9)	(36,0)	(160,0)	(290,1)	(156,3)	(-18,3)	
L1D -20>	(162,21)	(5,16)	(229,55)	(143,16)	(22,66)	(-1,78)	(23,1)	(95,16)	(155,10)	(311,42)	(18,84)	(16,52)	(159,15)	(14,8)	(289,31)	(17,60)	
L1D -19>	(10,17)	(6,61)	(-9,86)	(152,18)	(176,1)	(-4,34)	(8,7)	(18,10)	(-1,5)	(-62,0)	(7,0)	(14,3)	(17,0)	(62,0)	(5,1)	(-5,1)	
L1D -18>	(6,8)	(-308,76)	(-90,76)	(-6,1)	(-63,77)	(66,54)	(54,72)	(-82,6)	(15,41)	(12,16)	(22,5)	(90,1)	(-14,3)	(-78,4)	(-252,77)	(60,44)	
L1D -17>	(-1,18)	(1,0)	(48,67)	(-6,6)	(-21,3)	(8,1)	(18,1)	(-8,2)	(-26,0)	(6,1)	(209,0)	(1,0)	(1,0)	(1,0)	(1,0)	(1,0)	
L1D -16>	(-44,13)	(276,87)	(80,1)	(98,13)	(-150,4)	(8,47)	(30,112)	(13,3)	(54,8)	(64,108)	(62,10)	(2,9)	(44,9)	(-138,5)	(36,118)	(18,2)	
L1D -15>	(-6,0)	(16,0)	(13,5)	(14,1)	(-133,0)	(-1,24)	(145,0)	(5,6)	(9,89)	(6,115)	(17,18)	(-22,1)	(18,59)	(-5,11)	(8,44)	(115,1)	
L1D -14>	(218,79)	(-154,1)	(-22,3)	(-5,73)	(60,4)	(-36,3)	(-121,4)	(-96,91)	(66,11)	(100,7)	(-72,2)	(-142,11)	(40,2)	(-88,4)	(-204,9)	(276,4)	
L1D -13>	(-12,33)	(12,15)	(-8,105)	(-7,1)	(-3,0)	(-10,2)	(6,0)	(8,1)	(-17,0)	(-9,0)	(1,0)	(1,0)	(1,0)	(1,0)	(1,0)	(1,0)	
L1D -12>	(-130,35)	(-46,30)	(-7,84)	(-234,31)	(-82,32)	(-30,35)	(338,8)	(350,2)	(-84,15)	(-8,35)	(169,1)	(-12,9)	(18,24)	(9,10)	(326,2)	(27,4)	
L1D -11>	(17,9)	(10,3)	(6,5)	(-7,103)	(77,1)	(19,3)	(-9,25)	(8,17)	(-5,44)	(83,1)	(11,0)	(14,1)	(12,0)	(9,0)	(89,1)	(-267,0)	
L1D -10>	(218,1)	(15,1)	(82,1)	(106,27)	(-82,3)	(-156,25)	(32,1)	(-5,82)	(125,1)	(-10,0)	(-58,0)	(-166,0)	(114,0)	(22,0)	(322,0)	(-52,6)	
L1D -9>	(4,57)	(-1,18)	(8,25)	(-7,66)	(12,15)	(-14,5)	(17,61)	(18,81)	(3,13)	(-8,0)	(6,31)	(15,8)	(-11,29)	(-16,14)	(2,0)	(24,0)	
L1D -8>	(5,12)	(-32,56)	(20,13)	(-2,56)	(-20,51)	(15,38)	(205,47)	(177,15)	(-102,1)	(185,33)	(110,7)	(23,39)	(-48,36)	(14,119)	(-4,9)	(-8,63)	
L1D -7>	(7,117)	(27,1)	(15,119)	(22,58)	(176,18)	(6,37)	(12,4)	(-9,21)	(-36,4)	(89,22)	(10,15)	(84,3)	(82,3)	(80,2)	(96,1)	(62,3)	
L1D -6>	(3,86)	(15,2)	(236,2)	(-56,2)	(-50,4)	(-7,1)	(8,13)	(-2,81)	(-126,1)	(24,5)	(28,43)	(-9,1)	(160,3)	(-48,2)	(-114,29)	(238,1)	
L1D -5>	(138,82)	(12,53)	(8,55)	(17,127)	(164,4)	(-28,80)	(-3,80)	(-1,44)	(19,81)	(6,47)	(14,45)	(-11,1)	(-9,11)	(18,29)	(-10,10)	(15,6)	
L1D -4>	(-172,5)	(-4,14)	(-58,1)	(347,33)	(103,59)	(174,77)	(172,30)	(-76,9)	(2,10)	(-5,52)	(26,62)	(-21,38)	(-342,29)	(9,19)	(-48,12)	(3,105)	
L1D -3>	(0,22)	(-342,10)	(4,89)	(-7,30)	(346,3)	(81,1)	(-5,22)	(136,5)	(172,10)	(15,1)	(175,4)	(174,16)	(-3,1)	(18,4)	(176,4)	(-170,14)	
L1D -2>	(173,22)	(1,13)	(-126,28)	(-18,27)	(-1,25)	(-4,1)	(4,86)	(3,32)	(106,24)	(-170,30)	(-226,24)	(28,24)	(-171,39)	(2,25)	(-148,25)	(13,49)	
L1D -1>	(-2,12)	(174,7)	(172,34)	(345,10)	(-1,94)	(3,14)	(-171,56)	(2,15)	(169,1)	(0,8)	(4,35)	(173,10)	(171,9)	(-172,17)	(82,8)	(-170,29)	
L1D 0>	(0,118)	(2,2)	(425,0)	(-172,3)	(-1,24)	(-195,3)	(-5,3)	(-2,1)	(7,3)	(-7,16)	(81,6)	(195,2)	(-3,2)	(1,0)	(-48,2)	(-344,0)	
L1D 1>	(1,82)	(-4,0)	(-12,0)	(171,0)	(172,1)	(-172,1)	(343,4)	(170,1)	(-175,0)	(2,1)	(168,0)	(-1,2)	(-2,4)	(3,0)	(0,2)	(73,0)	
L1D 2>	(-172,124)	(-173,37)	(-8,27)	(-345,11)	(-1,53)	(171,26)	(-343,9)	(-346,21)	(-2,27)	(0,25)	(-171,1)	(-175,6)	(94,20)	(156,18)	(-50,19)	(1,18)	
L1D 3>	(2,47)	(6,14)	(-173,88)	(170,32)	(-2,23)	(1,57)	(-1,76)	(344,5)	(171,39)	(408,24)	(-344,13)	(-345,1)	(-174,18)	(-172,9)	(-14,11)	(342,5)	
L1D 4>	(-20,16)	(-175,1)	(-6,33)	(-48,15)	(-346,43)	(-344,12)	(8,17)	(-1,57)	(-174,106)	(-92,11)	(-176,107)	(6,14)	(170,59)	(10,7)	(168,122)	(-173,10)	
L1D 5>	(13,64)	(22,1)	(-6,1)	(172,1)	(-1,4)	(18,31)	(9,52)	(-172,1)	(12,1)	(-2,0)	(0,0)	(1,2)	(-118,0)	(82,0)	(-16,0)	(-3,0)	
L1D 6>	(92,23)	(94,36)	(84,24)	(-84,1)	(-128,36)	(-7,82)	(18,42)	(8,7)	(-10,18)	(2,4)	(-15,69)	(14,37)	(-82,32)	(66,1)	(-132,27)	(9,1)	
L1D 7>	(-7,12)	(0,64)	(-127,0)	(-154,0)	(172,0)	(-1,0)	(2,0)	(-4,0)	(70,0)	(1,4)	(1,0)	(1,0)	(1,0)	(1,0)	(1,0)	(1,0)	
L1D 8>	(66,1)	(-3,18)	(-9,19)	(194,50)	(75,5)	(15,6)	(94,20)	(-19,103)	(9,65)	(12,16)	(10,23)	(6,25)	(177,5)	(-80,40)	(-23,17)	(158,49)	
L1D 9>	(72,1)	(1,27)	(13,10)	(18,71)	(-11,14)	(4,10)	(-1,18)	(-6,5)	(-18,61)	(-7,50)	(12,58)	(9,20)	(-5,1)	(-3,9)	(-16,4)	(62,2)	
L1D 10>	(-262,1)	(-16,3)	(-72,60)	(8,2)	(-24,5)	(-14,8)	(-19,97)	(-12,15)	(-18,31)	(-84,14)	(133,10)	(-156,69)	(-194,13)	(6,42)	(-68,6)	(54,5)	
L1D 11>	(-3,32)	(-20,104)	(133,52)	(123,6)	(-21,18)	(-7,0)	(24,0)	(-13,3)	(-10,1)	(-2,0)	(121,0)	(1,0)	(1,0)	(1,0)	(1,0)	(1,0)	
L1D 12>	(-24,35)	(10,1)	(-20,89)	(52,5)	(84,2)	(-7,17)	(48,4)	(115,1)	(133,11)	(-19,84)	(-15,1)	(-3,2)	(76,27)	(144,19)	(-13,4)	(-21,12)	
L1D 13>	(-20,88)	(-5,19)	(8,14)	(-11,4)	(-14,0)	(-3,0)	(-21,1)	(-15,1)	(10,0)	(-1,0)	(-41,0)	(1,0)	(1,0)	(1,0)	(1,0)	(1,0)	
L1D 14>	(12,115)	(-278,101)	(78,122)	(14,27)	(6,40)	(-1,24)	(-36,64)	(-30,116)	(-50,32)	(-40,74)	(69,1)	(-7,79)	(164,2)	(-156,87)	(86,16)	(176,67)	
L1D 15>	(-127,65)	(-3,77)	(47,47)	(81,42)	(65,57)	(67,55)	(83,37)	(69,57)	(75,45)	(0,74)	(-22,1)	(-9,19)	(-23,6)	(159,2)	(12,3)	(-5,1)	
L1D 16>	(-88,82)	(-18,1)	(-34,87)	(-96,83)	(-11,10)	(-4,79)	(-2,24)	(-100,4)	(-60,3)	(16,9)	(-154,4)	(-12,3)	(120,1)	(64,5)	(-166,4)	(-230,1)	
L1D 17>	(31,29)	(80,4)	(66,1)	(-11,92)	(126,10)	(145,3)	(-216,1)	(-284,0)	(1,11)	(-3,16)	(78,14)	(-18,5)	(138,16)	(19,43)	(64,0)	(142,15)	
L1D 18>	(-19,15)	(-12,66)	(8,21)	(-58,18)	(202,40)	(70,32)	(72,33)	(-9,108)	(12,1)	(372,9)	(142,7)	(138,9)	(78,14)	(126,18)	(-7,21)	(-29,32)	
L1D 19>	(-4,103)	(6,1)	(15,0)	(-303,74)	(-1,2)	(-235,12)	(-28,5)	(-9,0)	(59,1)	(-14,5)	(-13,2)	(20,0)	(1,0)	(1,0)	(1,0)	(1,0)	
L1D 20>	(138,42)	(-22,66)	(4,42)	(-24,12)	(-12,39)	(-100,0)	(-15,28)	(304,1)	(-56,4)	(244,1)	(-2,8)	(-40,1)	(14,1)	(-21,2)	(-6,2)	(127,2)	
L1D 21>	(-1,46)	(14,25)	(-8,25)	(-16,1)	(-13,5)	(13,1)	(-19,4)	(-15,4)	(-7,1)	(-12,3)	(4,1)	(-20,1)	(1,0)	(1,0)	(1,0)	(1,0)	
L1D 22>	(-290,18)	(-18,7)	(242,81)	(-23,99)	(80,1)	(267,14)	(70,5)	(133,21)	(73,10)	(159,64)	(14,5)	(369,60)	(367,42)	(137,18)	(-5,12)	(140,10)	
L1D 23>	(-77,1)	(-1,1)	(-5,0)	(-9,74)	(-20,0)	(18,0)	(1,0)	(1,0)	(1,0)	(1,0)	(1,0)	(1,0)	(1,0)	(1,0)	(1,0)	(1,0)	
L1D 24>	(-52,16)	(-8,4)	(184,1)	(70,9)	(-9,10)	(290,79)	(158,80)	(-30,1)	(98,53)	(72,38)	(-96,1)	(122,2)	(28,27)	(-148,1)	(-74,7)	(-26,13)	
L1D 25>	(-4,1)	(-2,0)	(-77,117)	(102,0)	(106,0)	(-6,84)	(-8,19)	(-64,2)	(94,1)	(96,1)	(98,1)	(92,1)	(1,0)	(1,0)	(1,0)	(1,0)	
L1D 26>	(-272,8)	(-182,1)	(-154,102)	(-74,3)	(-96,6)	(42,7)	(-200,1)	(-108,10)	(31,8)	(-1,105)	(-118,3)	(-44,6)	(-220,1)	(26,4)	(-14,1)	(-228,87)	
L1D 27>	(-9,97)	(70,3)	(-23,11)	(-18,1)	(-5,1)	(1,0)	(1,0)	(1,0)	(1,0)	(1,0)	(1,0)	(1,0)	(1,0)	(1,0)	(1,0)	(1,0)	
L1D 28>	(-54,5)	(-80,12)	(-264,11)	(66,80)	(-2,74)	(-18,90)	(-74,5)	(296,1)	(-8,4)	(58,87)	(182,13)	(2,19)	(-24,90)	(236,89)	(184,67)	(-44,14)	
L1D 29>	(-12,39)	(87,11)	(-296,2)	(119,5)	(-63,13)	(-1,1)	(2,1)	(1,0)	(1,0)	(1,0)	(1,0)	(1,0)	(1,0)	(1,0)	(1,0)	(1,0)	
L1D 30>	(66,107)	(-92,1)	(-29,1)	(232,4)	(145,4)	(12,3)	(290,2)	(-60,58)	(-330,1)	(-40,12)	(-19,2)	(-2,1)	(-18,1)	(-136,5)	(-170,2)	(-66,1)	
L1D 31>	(-242,98)	(-29,1)	(-30,0)	(-322,1)	(-43,10)	(-61,2)	(-185,110)	(-303,4)	(44,2)	(-3,2)	(-320,0)	(15,0)	(1,0)	(1,0)	(1,0)	(1,0)	
L1D 32>	(-14,1)	(290,1)	(-228,6)	(-16,13)	(-34,1)	(18,127)	(-218,5)	(-292,2)	(198,1)	(232,1)	(-118,2)	(20,2)	(-154,124)	(-272,6)	(-166,0)	(-100,1)	
L1D 33>	(41,127)	(-1,1)	(-2,1)	(-34,1)	(1,0)	(1,0)	(1,0)	(1,0)	(1,0)	(1,0)	(1,0)	(1,0)	(1,0)	(1,0)	(1,0)	(1,0)	
L1D 34>	(-330,1)	(238,91)	(-146,0)	(41,81)	(-350,16)	(50,2)	(-20,3)	(-40,0)	(-312,8)	(38,1)	(-152,0)	(10,76)	(42,4)	(-6,0)	(-12,85)	(-56,0)	
L1D 35>	(-1,1)	(-303,0)	(-235,3)	(-7,0)	(-163,0)	(-64,0)	(-171,106)	(-34,0)	(1,0)	(1,0)	(1,0)	(1,0)	(1,0)	(1,0)	(1,0)	(1,0)	
L1D 36>	(-38,94)	(38,1)	(80,1)	(-206,1)	(-88,114)	(-4,2)	(-212,2)	(-60,94)	(30,1)	(-256,11)	(228,49)	(-104,1)	(56,5)	(66,1)	(-24,1)	(-62,81)	
L1D 37>	(113,6)	(145,16)	(-1,1)	(5,1)	(1,0)	(1,0)	(1,0)	(1,0)	(1,0)	(1,0)	(1,0)	(1,0)	(1,0)	(1,0)	(1,0)	(1,0)	
L1D 38>	(-50,118)	(-298,2)	(-322,104)	(136,120)	(16,112)	(48,108)	(-102,10)	(46,1)	(206,2)	(-28,12)	(-20,4)	(-24,29)	(-26,6)	(-104,29)	(20,2)	(-80,2)	
L1D 39>	(-166,48)	(-8,10)	(-64,1)	(-42,4)	(-41,1)	(-44,1)	(1,0)	(1,0)	(1,0)	(1,0)	(1,0)	(1,0)	(1,0)	(1,0)	(1,0)	(1,0)	
L1D 40>	(-24,2)	(48,1)	(-42,1)	(-240,5)	(142,5)	(-104,2)	(-34,1)	(250,24)	(112,2)	(80,6)	(172,1)	(-228,114)	(-218,1)	(-278,4)	(52,1)	(190,3)	
L1D 41>	(-346,75)	(-42,3)	(-43,0)	(-68,0)	(-41,0)	(1,0)	(1,0)	(1,0)	(1,0)	(1,0)	(1,0)	(1,0)	(1,0)	(1,0)	(1,0)	(1,0)	
L1D 42>	(-16,11)	(8,5)	(-278,6)	(-24,4)	(-42,1)	(40,34)	(-188,2)	(106,71)	(248,3)	(-242,0)	(-38,13)	(-12,33)	(58,8)	(-96,11)	(-262,5)	(108,6)	
L1D 43>	(-49,2)	(-4,1)	(-1,1)	(-39,1)	(-42,8)	(-44,1)	(0,1)	(5,1)	(1,0)	(1,0)	(1,0)	(1,0)	(1,0)	(1,0)	(1,0)	(1,0)	
L1D 44>	(-10,1)	(-8,1)	(-156,1)	(30,2)	(-14,6)	(204,98)	(-140,1)	(-346,1)	(-240,2)	(-62,30)	(-122,66)	(-96,4)	(-272,1)	(-49,2)	(-32,1)	(128,88)	
L1D 45>	(84,12)	(1,1)	(-8,1)	(-1,1)	(-42,6)	(1,0)	(1,0)	(1,0)	(1,0)	(1,0)	(1,0)	(1,0)	(1,0)	(1,0)	(1,0)	(1,0)	
L1D 46>	(-280,48)	(-42,1)	(-114,0)	(-54,1)	(98,10)	(81,78)	(-47,0)	(-152,0)	(-58,0)	(-52,0)	(-118,1)	(-172,8)	(-166,0)	(6,3)	(-314,0)	(-82,1)	
L1D 47>	(-49,98)	(-48,13)	(98,1)	(-42,0)	(-50,7)	(-37,9)	(1,0)	(1,0)	(1,0)	(1,0)	(1,0)	(1,0)	(1,0)	(1,0)	(1,0)	(1,0)	
L1D 48>	(194,59)	(-58,18)	(28,4)	(-30,66)	(-46,1)	(-118,46)	(190,6)	(88,10)	(48,68)	(-168,68)	(232,6)	(-120,3)	(-298,30)	(-242,8)	(-50,2)	(-66,55)	
L1D 49>	(-52,119)	(99,12)	(-53,22)	(-1,2)	(95,40)	(-5,5)	(-4,2)	(-137,97)	(93,1)	(1,0)	(1,0)	(1,0)	(1,0)	(1,0)	(1,0)	(1,0)	
L1D 50>	(-2,0)	(72,0)	(-166,0)	(-284,0)	(-252,0)	(120,13)	(-188,4)	(-182,0)	(-136,1)	(190,0)	(-186,0)	(-168,0)	(-10,117)	(-174,83)	(26,3)	(86,2)	
L1D 51>	(-52,58)	(-43,9)	(-5,49)	(-149,1)	(93,110)	(-53,69)	(-303,7)	(1,0)	(1,0)	(1,0)	(1,0)	(1,0)	(1,0)	(1,0)	(1,0)	(1,0)	
L1D 52>	(-2,15)	(-4,10)	(-62,2)	(-156,2)	(-26,3)	(-44,69)	(-150,1)	(-10,3)	(-6,24)	(-54,2)	(226,7)	(-174,1)	(24,49)	(2,27)	(-164,8)	(-84,12)	
L1D 53>	(1,0)	(1,0)	(1,0)	(1,0)	(1,0)	(1,0)	(1,0)	(1,0)	(1,0)	(1,0)	(1,0)	(1,0)	(1,0)	(1,0)	(1,0)	(1,0)	
L1D 54>	(2,0)	(-78,0)	(-2,4)	(-218,0)	(10,9)	(-4,8)	(-194,0)	(36,0)	(8,1)	(-8,22)	(-202,1)	(152,3)	(-220,1)	(-158,109)	(16,1)	(-6,0)	
L1D 55>	(-71,7)	(-49,3)	(1,0)	(1,0)	(1,0)	(1,0)	(1,0)	(1,0)	(1,0)	(1,0)	(1,0)	(1,0)	(1,0)	(1,0)	(1,0)	(1,0)	
L1D 56>	(-118,1)	(-54,2)	(-236,0)	(-18,0)	(-40,64)	(-136,0)	(-76,1)	(10,0)	(-2,5)	(-156,0)	(-186,80)	(152,2)	(-20,0)	(-182,0)	(-22,0)	(60,0)	
L1D 57>	(-43,15)	(-1,2)	(1,0)	(1,0)	(1,0)	(1,0)	(1,0)	(1,0)	(1,0)	(1,0)	(1,0)	(1,0)	(1,0)	(1,0)	(1,0)	(1,0)	
L1D 58>	(-242,1)	(-182,75)	(-50,1)	(36,76)	(-74,0)	(-158,1)	(-170,0)	(-12,0)	(-208,0)	(-66,0)	(-20,0)	(-68,5)	(-322,0)	(136,5)	(-270,3)	(219,2)	
L1D 59>	(67,7)	(-66,49)	(-268,11)	(1,0)	(1,0)	(1,0)	(1,0)	(1,0)	(1,0)	(1,0)	(1,0)	(1,0)	(1,0)	(1,0)	(1,0)	(1,0)	
L1D 60>	(-270,0)	(-66,71)	(6,12)	(-48,26)	(-242,1)	(4,46)	(-314,0)	(146,0)	(26,5)	(-24,69)	(-100,0)	(-210,0)	(-4,1)	(-38,26)	(-186,3)	(14,22)	
L1D 61>	(-43,25)	(-183,5)	(-49,3)	(-1,2)	(1,0)	(1,0)	(1,0)	(1,0)	(1,0)	(1,0)	(1,0)	(1,0)	(1,0)	(1,0)	(1,0)	(1,0)	
L1D 62>	(186,123)	(-37,1)	(-108,1)	(10,1)	(-49,10)	(-212,11)	(-58,2)	(-50,2)	(-67,4)	(-48,6)	(-184,74)	(-154,4)	(-16,8)	(-96,2)	(-114,6)	(-162,6)	
L1D 63>	(-247,78)	(-63,11)	(7,0)	(-275,0)	(1,0)	(1,0)	(1,0)	(1,0)	(1,0)	(1,0)	(1,0)	(1,0)	(1,0)	(1,0)	(1,0)	(1,0)	
L1D 64>	(118,1)	(38,1)	(10,4)	(-24,1)	(-74,2)	(-70,15)	(8,102)	(-2,92)	(48,90)	(-69,4)	(-194,1)	(-62,2)	(15,0)	(-212,87)	(-116,1)	(232,1)	
L1D 65>	(-67,88)	(-219,69)	(-55,9)	(-66,6)	(-97,11)	(-42,0)	(1,0)	(1,0)	(1,0)	(1,0)	(1,0)	(1,0)	(1,0)	(1,0)	(1,0)	(1,0)	
L1D 66>	(-72,63)	(-18,73)	(112,90)	(-196,51)	(-40,85)	(226,101)	(-138,84)	(-92,108)	(4,5)	(116,1)	(42,16)	(24,68)	(-54,10)	(-88,5)	(-58,74)	(-210,104)	
L1D 67>	(-69,68)	(-2,95)	(-42,0)	(318,0)	(6,0)	(-55,0)	(-66,0)	(8,0)	(-244,6)	(-68,0)	(-57,12)	(1,0)	(1,0)	(1,0)	(1,0)	(1,0)	
L1D 68>	(72,1)	(-196,1)	(226,2)	(302,91)	(240,5)	(-76,1)	(118,8)	(31,2)	(-74,79)	(-182,1)	(-92,9)	(-62,1)	(-290,22)	(-222,4)	(102,0)	(-300,0)	
L1D 69>	(-72,93)	(2,0)	(-57,7)	(-79,1)	(1,0)	(1,0)	(1,0)	(1,0)	(1,0)	(1,0)	(1,0)	(1,0)	(1,0)	(1,0)	(1,0)	(1,0)	
L1D 70>	(-275,117)	(-32,104)	(-78,1)	(-150,3)	(-84,17)	(-180,63)	(102,118)	(-210,8)	(-96,1)	(-134,4)	(-88,9)	(-86,2)	(2,5)	(-94,6)	(-40,7)	(-98,19)	
L1D 71>	(-38,116)	(-209,5)	(-72,1)	(-1,3)	(1,0)	(1,0)	(1,0)	(1,0)	(1,0)	(1,0)	(1,0)	(1,0)	(1,0)	(1,0)	(1,0)	(1,0)	
L1D 72>	(-86,82)	(-80,120)	(-144,1)	(16,1)	(-100,1)	(-122,97)	(60,3)	(-38,103)	(-78,3)	(175,11)	(2,3)	(240,25)	(-214,1)	(24,2)	(180,6)	(112,59)	
L1D 73>	(2,0)	(-23,95)	(-89,0)	(-76,11)	(1,0)	(1,0)	(1,0)	(1,0)	(1,0)	(1,0)	(1,0)	(1,0)	(1,0)	(1,0)	(1,0)	(1,0)	
L1D 74>	(160,20)	(16,91)	(-124,1)	(30,3)	(-316,35)	(-64,1)	(-30,1)	(146,1)	(-290,0)	(-296,0)	(-272,1)	(-194,0)	(2,0)	(-169,0)	(-96,3)	(-2,0)	
L1D 75>	(60,81)	(-346,9)	(-1,0)	(1,0)	(1,0)	(1,0)	(1,0)	(1,0)	(1,0)	(1,0)	(1,0)	(1,0)	(1,0)	(1,0)	(1,0)	(1,0)	
L1D 76>	(-106,99)	(-32,8)	(-232,1)	(-102,1)	(-58,0)	(-162,0)	(-74,13)	(92,6)	(-190,11)	(-30,73)	(30,6)	(128,1)	(-54,6)	(-238,1)	(2,0)	(-86,2)	
L1D 77>	(2,3)	(-72,8)	(-1,1)	(1,0)	(1,0)	(1,0)	(1,0)	(1,0)	(1,0)	(1,0)	(1,0)	(1,0)	(1,0)	(1,0)	(1,0)	(1,0)	
L1D 78>	(-180,15)	(-292,109)	(102,15)	(-76,64)	(-2,116)	(-184,1)	(152,6)	(-140,3)	(-119,78)	(170,4)	(24,21)	(-82,12)	(-89,7)	(-68,2)	(-282,21)	(-66,4)	
L1D 79>	(2,3)	(-209,1)	(-267,1)	(-127,40)	(-1,2)	(-67,1)	(1,0)	(1,0)	(1,0)	(1,0)	(1,0)	(1,0)	(1,0)	(1,0)	(1,0)	(1,0)	
L1D 80>	(-106,5)	(-85,4)	(-350,1)	(154,54)	(-66,3)	(-216,4)	(-32,71)	(-67,5)	(-98,5)	(36,1)	(-46,68)	(14,66)	(-194,2)	(-162,1)	(246,59)	(8,7)	
L1D 81>	(-84,10)	(-82,66)	(-81,14)	(-1,0)	(-71,0)	(0,0)	(2,0)	(1,0)	(1,0)	(1,0)	(1,0)	(1,0)	(1,0)	(1,0)	(1,0)	(1,0)	
L1D 82>	(-69,3)	(-184,4)	(-82,77)	(24,75)	(-112,5)	(14,46)	(-280,3)	(-228,1)	(-80,19)	(97,1)	(-68,5)	(-57,1)	(-46,11)	(-26,59)	(-110,4)	(-290,3)	
L1D 83>	(-85,64)	(-83,77)	(-86,1)	(218,0)	(-73,4)	(60,0)	(-72,0)	(1,0)	(1,0)	(1,0)	(1,0)	(1,0)	(1,0)	(1,0)	(1,0)	(1,0)	
L1D 84>	(164,35)	(-265,4)	(210,2)	(-83,120)	(6,1)	(-230,35)	(-102,8)	(-98,1)	(-88,6)	(-84,5)	(-72,1)	(-90,1)	(224,25)	(-134,26)	(88,3)	(228,2)	
L1D 85>	(236,5)	(10,2)	(2,61)	(-1,1)	(220,4)	(1,0)	(1,0)	(1,0)	(1,0)	(1,0)	(1,0)	(1,0)	(1,0)	(1,0)	(1,0)	(1,0)	
L1D 86>	(-18,115)	(-230,2)	(-258,5)	(4,0)	(8,1)	(128,1)	(-46,1)	(14,0)	(-66,0)	(-58,8)	(-100,0)	(-246,5)	(120,0)	(-308,0)	(232,2)	(-48,0)	
L1D 87>	(-144,93)	(-82,0)	(-132,0)	(32,0)	(1,0)	(1,0)	(1,0)	(1,0)	(1,0)	(1,0)	(1,0)	(1,0)	(1,0)	(1,0)	(1,0)	(1,0)	
L1D 88>	(-172,1)	(-30,1)	(208,1)	(132,5)	(18,87)	(-184,39)	(-28,1)	(-258,0)	(-138,0)	(10,1)	(-230,1)	(168,0)	(-102,21)	(88,18)	(-74,7)	(84,23)	
L1D 89>	(-127,0)	(6,112)	(-82,2)	(60,0)	(1,0)	(1,0)	(1,0)	(1,0)	(1,0)	(1,0)	(1,0)	(1,0)	(1,0)	(1,0)	(1,0)	(1,0)	
L1D 90>	(-2,82)	(-34,21)	(162,1)	(-188,0)	(187,0)	(98,0)	(-30,0)	(-6,1)	(-36,10)	(-28,0)	(-96,1)	(-76,0)	(122,4)	(60,4)	(-92,0)	(228,0)	
L1D 91>	(6,3)	(2,2)	(272,8)	(-78,21)	(-86,14)	(-1,1)	(-85,2)	(1,0)	(1,0)	(1,0)	(1,0)	(1,0)	(1,0)	(1,0)	(1,0)	(1,0)	
L1D 92>	(-96,10)	(-40,4)	(228,1)	(80,84)	(-102,2)	(-198,2)	(162,0)	(-224,2)	(-210,87)	(-268,11)	(-304,0)	(6,1)	(-70,0)	(-184,1)	(118,0)	(-282,3)	
L1D 93>	(-95,30)	(2,6)	(42,1)	(-145,1)	(-146,110)	(-10,4)	(1,0)	(1,0)	(1,0)	(1,0)	(1,0)	(1,0)	(1,0)	(1,0)	(1,0)	(1,0)	
L1D 94>	(-314,120)	(211,1)	(-66,104)	(-354,1)	(76,104)	(78,1)	(-184,9)	(4,1)	(118,1)	(-116,0)	(106,3)	(-172,2)	(-124,1)	(-156,1)	(-100,0)	(-126,1)	
L1D 95>	(92,6)	(168,3)	(40,1)	(-232,6)	(2,2)	(-78,0)	(36,94)	(-4,0)	(22,6)	(-204,1)	(-272,0)	(-97,0)	(-76,39)	(-26,6)	(-144,1)	(266,5)	
L1D 96>	(-18,19)	(-188,2)	(-202,48)	(110,6)	(92,59)	(182,1)	(-76,2)	(230,3)	(-16,65)	(-40,35)	(8,17)	(-82,8)	(-66,5)	(-58,79)	(-12,32)	(-159,7)	
L1D 97>	(-29,106)	(-16,2)	(-96,0)	(-146,0)	(-275,1)	(1,0)	(1,0)	(1,0)	(1,0)	(1,0)	(1,0)	(1,0)	(1,0)	(1,0)	(1,0)	(1,0)	
L1D 98>	(-28,5)	(-210,1)	(-106,2)	(80,30)	(78,4)	(-286,2)	(-146,1)	(-120,2)	(72,4)	(210,5)	(138,7)	(-110,111)	(24,3)	(193,21)	(176,2)	(34,14)	
L1D 99>	(-100,0)	(-267,0)	(4,0)	(-2,0)	(-32,0)	(-283,0)	(-103,0)	(-18,0)	(-4,0)	(-222,71)	(110,1)	(1,0)	(1,0)	(1,0)	(1,0)	(1,0)	
L1D 100>	(-220,1)	(-164,1)	(-66,3)	(4,2)	(-228,1)	(2,0)	(-58,10)	(176,1)	(-84,101)	(-115,118)	(-208,0)	(212,0)	(-246,7)	(-108,8)	(116,0)	(82,6)	
L1D 101>	(-103,0)	(14,69)	(-222,69)	(-142,1)	(1,0)	(1,0)	(1,0)	(1,0)	(1,0)	(1,0)	(1,0)	(1,0)	(1,0)	(1,0)	(1,0)	(1,0)	
L1D 102>	(-2,1)	(-48,68)	(110,9)	(-130,58)	(-116,3)	(-74,13)	(-6,0)	(-114,0)	(82,3)	(102,1)	(-172,2)	(-136,1)	(-30,0)	(-50,2)	(-108,0)	(-202,0)	
L1D 103>	(-32,82)	(-18,3)	(-8,0)	(2,1)	(-54,2)	(66,1)	(216,0)	(1,0)	(1,0)	(1,0)	(1,0)	(1,0)	(1,0)	(1,0)	(1,0)	(1,0)	
L1D 104>	(-154,2)	(-38,1)	(-110,4)	(-198,2)	(210,2)	(-30,103)	(-126,113)	(108,19)	(222,1)	(-118,1)	(-80,7)	(-32,2)	(-102,1)	(32,9)	(82,4)	(-240,1)	
L1D 105>	(-109,5)	(-2,28)	(-107,3)	(1,0)	(1,0)	(1,0)	(1,0)	(1,0)	(1,0)	(1,0)	(1,0)	(1,0)	(1,0)	(1,0)	(1,0)	(1,0)	
L1D 106>	(-132,96)	(-86,2)	(-22,4)	(148,3)	(-138,15)	(120,93)	(112,6)	(-16,4)	(78,80)	(-28,3)	(208,76)	(32,1)	(212,72)	(2,70)	(-30,3)	(-92,3)	
L1D 107>	(1,0)	(1,0)	(1,0)	(1,0)	(1,0)	(1,0)	(1,0)	(1,0)	(1,0)	(1,0)	(1,0)	(1,0)	(1,0)	(1,0)	(1,0)	(1,0)	
L1D 108>	(-210,4)	(-40,100)	(-138,0)	(-258,0)	(-350,3)	(42,3)	(146,0)	(-2,5)	(-98,0)	(-136,0)	(-34,1)	(-50,1)	(-110,0)	(148,0)	(-122,1)	(-92,6)	
L1D 109>	(95,74)	(-7,4)	(1,0)	(1,0)	(1,0)	(1,0)	(1,0)	(1,0)	(1,0)	(1,0)	(1,0)	(1,0)	(1,0)	(1,0)	(1,0)	(1,0)	
L1D 110>	(72,36)	(148,0)	(-98,11)	(-102,12)	(-170,11)	(-286,0)	(218,0)	(-272,64)	(70,10)	(-332,1)	(-310,1)	(108,0)	(-14,4)	(95,1)	(-32,0)	(-128,0)	
L1D 111>	(1,0)	(1,0)	(1,0)	(1,0)	(1,0)	(1,0)	(1,0)	(1,0)	(1,0)	(1,0)	(1,0)	(1,0)	(1,0)	(1,0)	(1,0)	(1,0)	
L1D 112>	(-116,0)	(-48,1)	(-88,67)	(-102,0)	(-84,77)	(-80,0)	(-234,2)	(-184,0)	(63,37)	(140,0)	(-110,70)	(-122,1)	(48,38)	(58,2)	(-28,0)	(100,4)	
[...]
L1D 481>	(1,0)	(1,0)	(1,0)	(1,0)	(1,0)	(1,0)	(1,0)	(1,0)	(1,0)	(1,0)	(1,0)	(1,0)	(1,0)	(1,0)	(1,0)	(1,0)	
L1D 482>	(1,0)	(1,0)	(1,0)	(1,0)	(1,0)	(1,0)	(1,0)	(1,0)	(1,0)	(1,0)	(1,0)	(1,0)	(1,0)	(1,0)	(1,0)	(1,0)	
L1D 483>	(1,0)	(1,0)	(1,0)	(1,0)	(1,0)	(1,0)	(1,0)	(1,0)	(1,0)	(1,0)	(1,0)	(1,0)	(1,0)	(1,0)	(1,0)	(1,0)	
L1D 484>	(1,0)	(1,0)	(1,0)	(1,0)	(1,0)	(1,0)	(1,0)	(1,0)	(1,0)	(1,0)	(1,0)	(1,0)	(1,0)	(1,0)	(1,0)	(1,0)	
L1D 485>	(1,0)	(1,0)	(1,0)	(1,0)	(1,0)	(1,0)	(1,0)	(1,0)	(1,0)	(1,0)	(1,0)	(1,0)	(1,0)	(1,0)	(1,0)	(1,0)	
L1D 486>	(1,0)	(1,0)	(1,0)	(1,0)	(1,0)	(1,0)	(1,0)	(1,0)	(1,0)	(1,0)	(1,0)	(1,0)	(1,0)	(1,0)	(1,0)	(1,0)	
L1D 487>	(1,0)	(1,0)	(1,0)	(1,0)	(1,0)	(1,0)	(1,0)	(1,0)	(1,0)	(1,0)	(1,0)	(1,0)	(1,0)	(1,0)	(1,0)	(1,0)	
L1D 488>	(1,0)	(1,0)	(1,0)	(1,0)	(1,0)	(1,0)	(1,0)	(1,0)	(1,0)	(1,0)	(1,0)	(1,0)	(1,0)	(1,0)	(1,0)	(1,0)	
L1D 489>	(1,0)	(1,0)	(1,0)	(1,0)	(1,0)	(1,0)	(1,0)	(1,0)	(1,0)	(1,0)	(1,0)	(1,0)	(1,0)	(1,0)	(1,0)	(1,0)	
L1D 490>	(1,0)	(1,0)	(1,0)	(1,0)	(1,0)	(1,0)	(1,0)	(1,0)	(1,0)	(1,0)	(1,0)	(1,0)	(1,0)	(1,0)	(1,0)	(1,0)	
L1D 491>	(1,0)	(1,0)	(1,0)	(1,0)	(1,0)	(1,0)	(1,0)	(1,0)	(1,0)	(1,0)	(1,0)	(1,0)	(1,0)	(1,0)	(1,0)	(1,0)	
L1D 492>	(1,0)	(1,0)	(1,0)	(1,0)	(1,0)	(1,0)	(1,0)	(1,0)	(1,0)	(1,0)	(1,0)	(1,0)	(1,0)	(1,0)	(1,0)	(1,0)	
L1D 493>	(1,0)	(1,0)	(1,0)	(1,0)	(1,0)	(1,0)	(1,0)	(1,0)	(1,0)	(1,0)	(1,0)	(1,0)	(1,0)	(1,0)	(1,0)	(1,0)	
L1D 494>	(1,0)	(1,0)	(1,0)	(1,0)	(1,0)	(1,0)	(1,0)	(1,0)	(1,0)	(1,0)	(1,0)	(1,0)	(1,0)	(1,0)	(1,0)	(1,0)	
L1D 495>	(1,0)	(1,0)	(1,0)	(1,0)	(1,0)	(1,0)	(1,0)	(1,0)	(1,0)	(1,0)	(1,0)	(1,0)	(1,0)	(1,0)	(1,0)	(1,0)	
L1D 496>	(1,0)	(1,0)	(1,0)	(1,0)	(1,0)	(1,0)	(1,0)	(1,0)	(1,0)	(1,0)	(1,0)	(1,0)	(1,0)	(1,0)	(1,0)	(1,0)	
L1D 497>	(1,0)	(1,0)	(1,0)	(1,0)	(1,0)	(1,0)	(1,0)	(1,0)	(1,0)	(1,0)	(1,0)	(1,0)	(1,0)	(1,0)	(1,0)	(1,0)	
L1D 498>	(1,0)	(1,0)	(1,0)	(1,0)	(1,0)	(1,0)	(1,0)	(1,0)	(1,0)	(1,0)	(1,0)	(1,0)	(1,0)	(1,0)	(1,0)	(1,0)	
L1D 499>	(1,0)	(1,0)	(1,0)	(1,0)	(1,0)	(1,0)	(1,0)	(1,0)	(1,0)	(1,0)	(1,0)	(1,0)	(1,0)	(1,0)	(1,0)	(1,0)	
L1D 500>	(1,0)	(1,0)	(1,0)	(1,0)	(1,0)	(1,0)	(1,0)	(1,0)	(1,0)	(1,0)	(1,0)	(1,0)	(1,0)	(1,0)	(1,0)	(1,0)	
L1D 501>	(1,0)	(1,0)	(1,0)	(1,0)	(1,0)	(1,0)	(1,0)	(1,0)	(1,0)	(1,0)	(1,0)	(1,0)	(1,0)	(1,0)	(1,0)	(1,0)	
L1D 502>	(1,0)	(1,0)	(1,0)	(1,0)	(1,0)	(1,0)	(1,0)	(1,0)	(1,0)	(1,0)	(1,0)	(1,0)	(1,0)	(1,0)	(1,0)	(1,0)	
L1D 503>	(1,0)	(1,0)	(1,0)	(1,0)	(1,0)	(1,0)	(1,0)	(1,0)	(1,0)	(1,0)	(1,0)	(1,0)	(1,0)	(1,0)	(1,0)	(1,0)	
L1D 504>	(1,0)	(1,0)	(1,0)	(1,0)	(1,0)	(1,0)	(1,0)	(1,0)	(1,0)	(1,0)	(1,0)	(1,0)	(1,0)	(1,0)	(1,0)	(1,0)	
L1D 505>	(1,0)	(1,0)	(1,0)	(1,0)	(1,0)	(1,0)	(1,0)	(1,0)	(1,0)	(1,0)	(1,0)	(1,0)	(1,0)	(1,0)	(1,0)	(1,0)	
L1D 506>	(1,0)	(1,0)	(1,0)	(1,0)	(1,0)	(1,0)	(1,0)	(1,0)	(1,0)	(1,0)	(1,0)	(1,0)	(1,0)	(1,0)	(1,0)	(1,0)	
L1D 507>	(1,0)	(1,0)	(1,0)	(1,0)	(1,0)	(1,0)	(1,0)	(1,0)	(1,0)	(1,0)	(1,0)	(1,0)	(1,0)	(1,0)	(1,0)	(1,0)	
L1D 508>	(1,0)	(1,0)	(1,0)	(1,0)	(1,0)	(1,0)	(1,0)	(1,0)	(1,0)	(1,0)	(1,0)	(1,0)	(1,0)	(1,0)	(1,0)	(1,0)	
L1D 509>	(1,0)	(1,0)	(1,0)	(1,0)	(1,0)	(1,0)	(1,0)	(1,0)	(1,0)	(1,0)	(1,0)	(1,0)	(1,0)	(1,0)	(1,0)	(1,0)	
L1D 510>	(1,0)	(1,0)	(1,0)	(1,0)	(1,0)	(1,0)	(1,0)	(1,0)	(1,0)	(1,0)	(1,0)	(1,0)	(1,0)	(1,0)	(1,0)	(1,0)	
L1D 511>	(1,0)	(1,0)	(1,0)	(1,0)	(1,0)	(1,0)	(1,0)	(1,0)	(1,0)	(1,0)	(1,0)	(1,0)	(1,0)	(1,0)	(1,0)	(1,0)	

L2C -64>	(1,61)	(-1,164)	(-22,40)	(21,40)	(-5,230)	(-21,108)	(43,79)	(0,177)	(-24,1)	(-2,114)	(5,4)	(16,10)	(31,3)	(-3,79)	(8,5)	(22,215)	
L2C -63>	(41,1)	(22,2)	(42,1)	(9,1)	(1,0)	(1,0)	(1,0)	(1,0)	(1,0)	(1,0)	(1,0)	(1,0)	(1,0)	(1,0)	(1,0)	(1,0)	
L2C -62>	(42,1)	(1,1)	(2,6)	(1,0)	(1,0)	(1,0)	(1,0)	(1,0)	(1,0)	(1,0)	(1,0)	(1,0)	(1,0)	(1,0)	(1,0)	(1,0)	
L2C -61>	(18,1)	(22,1)	(40,2)	(39,1)	(1,0)	(1,0)	(1,0)	(1,0)	(1,0)	(1,0)	(1,0)	(1,0)	(1,0)	(1,0)	(1,0)	(1,0)	
L2C -60>	(17,1)	(62,1)	(38,2)	(1,0)	(1,0)	(1,0)	(1,0)	(1,0)	(1,0)	(1,0)	(1,0)	(1,0)	(1,0)	(1,0)	(1,0)	(1,0)	
L2C -59>	(24,1)	(14,2)	(1,5)	(15,1)	(22,2)	(16,1)	(27,1)	(1,0)	(1,0)	(1,0)	(1,0)	(1,0)	(1,0)	(1,0)	(1,0)	(1,0)	
L2C -58>	(1,18)	(28,2)	(22,2)	(16,1)	(14,2)	(15,3)	(21,1)	(1,0)	(1,0)	(1,0)	(1,0)	(1,0)	(1,0)	(1,0)	(1,0)	(1,0)	
L2C -57>	(1,145)	(20,0)	(24,0)	(22,0)	(26,0)	(0,0)	(1,0)	(1,0)	(1,0)	(1,0)	(1,0)	(1,0)	(1,0)	(1,0)	(1,0)	(1,0)	
L2C -56>	(-2,1)	(6,1)	(7,1)	(14,2)	(42,2)	(21,1)	(1,2)	(20,1)	(-1,2)	(1,0)	(1,0)	(1,0)	(1,0)	(1,0)	(1,0)	(1,0)	
L2C -55>	(-1,2)	(50,1)	(26,2)	(-2,10)	(18,1)	(13,1)	(12,1)	(6,1)	(1,0)	(1,0)	(1,0)	(1,0)	(1,0)	(1,0)	(1,0)	(1,0)	
L2C -54>	(5,3)	(1,3)	(19,2)	(2,2)	(22,1)	(3,3)	(15,1)	(4,2)	(1,0)	(1,0)	(1,0)	(1,0)	(1,0)	(1,0)	(1,0)	(1,0)	
L2C -53>	(0,34)	(26,5)	(-1,8)	(30,1)	(50,1)	(1,7)	(18,1)	(15,1)	(29,1)	(22,2)	(51,1)	(8,1)	(2,1)	(1,0)	(1,0)	(1,0)	
L2C -52>	(1,49)	(26,32)	(30,3)	(28,2)	(13,10)	(42,2)	(22,8)	(50,4)	(27,1)	(51,1)	(49,5)	(6,1)	(21,1)	(8,1)	(-1,2)	(44,2)	
L2C -51>	(1,32)	(14,9)	(16,5)	(52,4)	(36,2)	(-4,2)	(29,13)	(15,10)	(6,5)	(37,3)	(8,3)	(17,5)	(-6,9)	(7,21)	(-5,3)	(50,4)	
L2C -50>	(0,10)	(28,6)	(6,6)	(1,36)	(7,3)	(50,22)	(-1,23)	(44,9)	(49,9)	(15,8)	(21,8)	(29,3)	(20,2)	(-4,2)	(18,7)	(14,7)	
L2C -49>	(-1,5)	(27,6)	(1,18)	(43,21)	(44,72)	(6,2)	(23,3)	(21,5)	(7,7)	(50,2)	(13,2)	(14,16)	(8,1)	(20,3)	(28,3)	(-2,3)	
L2C -48>	(21,18)	(13,3)	(22,154)	(0,11)	(43,197)	(-2,3)	(1,74)	(44,9)	(25,2)	(42,14)	(-1,14)	(2,4)	(24,3)	(49,4)	(5,3)	(15,2)	
L2C -47>	(1,67)	(-1,26)	(0,3)	(42,15)	(48,10)	(43,123)	(44,25)	(21,31)	(22,54)	(49,4)	(6,1)	(26,2)	(12,1)	(19,1)	(20,2)	(23,5)	
L2C -46>	(2,3)	(-1,6)	(22,71)	(43,185)	(0,15)	(1,108)	(21,15)	(49,1)	(42,5)	(44,26)	(5,1)	(47,8)	(41,1)	(10,1)	(3,0)	(51,0)	
L2C -45>	(22,72)	(-1,62)	(44,16)	(21,33)	(41,1)	(0,12)	(43,146)	(46,16)	(42,50)	(1,106)	(24,10)	(15,1)	(8,2)	(20,1)	(2,4)	(47,2)	
L2C -44>	(22,146)	(-1,22)	(47,1)	(1,214)	(43,147)	(21,9)	(44,64)	(2,11)	(23,42)	(0,4)	(-2,3)	(42,11)	(45,25)	(8,1)	(7,1)	(46,1)	
L2C -43>	(42,57)	(21,130)	(-2,0)	(44,66)	(22,213)	(43,114)	(1,101)	(19,0)	(24,0)	(2,1)	(-1,15)	(45,0)	(23,9)	(3,0)	(25,1)	(29,0)	
L2C -42>	(43,53)	(1,104)	(20,10)	(-1,83)	(21,177)	(0,2)	(24,1)	(45,0)	(44,4)	(22,113)	(42,3)	(2,4)	(-2,1)	(40,0)	(23,2)	(-21,0)	
L2C -41>	(20,54)	(1,183)	(-2,45)	(22,123)	(23,2)	(0,2)	(-1,9)	(21,12)	(-3,8)	(40,5)	(19,34)	(4,7)	(12,1)	(42,17)	(3,6)	(2,4)	
L2C -40>	(-1,3)	(2,4)	(1,63)	(-3,23)	(21,4)	(-5,2)	(22,16)	(41,29)	(18,14)	(19,44)	(3,5)	(20,2)	(-2,3)	(39,1)	(-4,1)	(8,2)	
L2C -39>	(1,244)	(38,1)	(17,0)	(43,0)	(53,0)	(40,0)	(-4,0)	(19,0)	(18,0)	(1,0)	(1,0)	(1,0)	(1,0)	(1,0)	(1,0)	(1,0)	
L2C -38>	(-6,10)	(-5,15)	(39,4)	(17,15)	(1,17)	(16,10)	(37,2)	(8,6)	(43,7)	(10,1)	(23,1)	(22,6)	(40,7)	(21,3)	(60,2)	(52,1)	
L2C -37>	(-5,5)	(-1,2)	(42,17)	(2,4)	(38,12)	(40,21)	(-20,8)	(32,2)	(-18,2)	(-6,23)	(1,12)	(16,2)	(43,1)	(15,1)	(-9,1)	(-15,1)	
L2C -36>	(16,10)	(22,5)	(1,34)	(15,14)	(29,1)	(-1,8)	(-21,11)	(8,2)	(51,4)	(-8,3)	(2,4)	(-7,7)	(-20,2)	(50,7)	(-9,15)	(14,10)	
L2C -35>	(21,19)	(0,17)	(6,5)	(-1,18)	(22,10)	(-22,22)	(1,25)	(-2,7)	(49,2)	(-21,3)	(50,7)	(14,4)	(8,1)	(-15,1)	(-16,1)	(29,12)	
L2C -34>	(1,6)	(21,5)	(20,3)	(-1,14)	(47,1)	(-23,22)	(-22,11)	(-21,13)	(-2,10)	(27,1)	(-3,7)	(-8,1)	(-10,4)	(28,2)	(6,1)	(-15,1)	
L2C -33>	(1,4)	(-15,10)	(43,2)	(26,2)	(7,2)	(13,4)	(5,5)	(10,1)	(-13,1)	(6,1)	(-10,1)	(-12,3)	(47,3)	(-1,2)	(-7,8)	(22,3)	
L2C -32>	(7,1)	(-17,1)	(-21,4)	(1,3)	(-22,1)	(15,2)	(-14,1)	(39,1)	(-13,1)	(13,1)	(-20,1)	(37,1)	(20,1)	(25,2)	(4,1)	(-18,1)	
L2C -31>	(10,1)	(-12,1)	(1,2)	(-6,1)	(36,5)	(-2,1)	(26,2)	(24,1)	(7,4)	(-14,2)	(-4,2)	(29,1)	(-3,1)	(-1,1)	(13,1)	(50,5)	
L2C -30>	(1,39)	(7,3)	(-20,8)	(-6,4)	(-14,2)	(22,9)	(50,6)	(14,23)	(49,2)	(36,2)	(6,2)	(15,3)	(16,18)	(-8,2)	(-1,10)	(-19,1)	
L2C -29>	(50,8)	(1,82)	(-1,62)	(2,16)	(15,5)	(-20,1)	(-21,47)	(21,5)	(3,2)	(7,8)	(14,6)	(9,2)	(-6,5)	(8,11)	(-22,10)	(36,5)	
L2C -28>	(20,18)	(-1,42)	(49,20)	(22,11)	(21,218)	(28,8)	(14,47)	(15,26)	(1,15)	(47,19)	(-21,5)	(6,18)	(35,6)	(-22,15)	(7,5)	(50,39)	
L2C -27>	(-1,11)	(21,57)	(22,218)	(1,122)	(-20,3)	(-22,101)	(0,51)	(15,1)	(43,198)	(6,33)	(13,4)	(44,14)	(-21,212)	(36,4)	(20,49)	(2,12)	
L2C -26>	(-1,69)	(21,154)	(1,166)	(22,30)	(43,83)	(3,4)	(-21,57)	(44,5)	(42,17)	(20,8)	(-22,156)	(0,33)	(14,1)	(2,9)	(-23,3)	(27,14)	
L2C -25>	(25,26)	(21,53)	(-1,38)	(22,137)	(-22,158)	(43,113)	(20,20)	(1,186)	(2,12)	(44,115)	(26,19)	(42,4)	(-21,113)	(0,26)	(-20,13)	(45,2)	
L2C -24>	(21,107)	(1,107)	(22,138)	(3,6)	(-1,22)	(42,18)	(44,15)	(27,6)	(43,135)	(25,12)	(0,30)	(2,4)	(-21,86)	(-22,97)	(14,0)	(46,5)	
L2C -23>	(45,9)	(20,3)	(-1,49)	(1,158)	(21,83)	(43,96)	(24,30)	(-21,53)	(2,12)	(22,77)	(42,34)	(0,25)	(-22,72)	(44,18)	(14,2)	(26,1)	
L2C -22>	(-21,133)	(21,63)	(-22,19)	(22,124)	(43,113)	(42,2)	(0,8)	(2,1)	(1,143)	(45,1)	(23,13)	(44,14)	(-28,11)	(-15,0)	(-20,6)	(-1,3)	
L2C -21>	(43,89)	(-21,31)	(42,5)	(22,165)	(21,71)	(-22,70)	(20,9)	(0,15)	(1,45)	(-1,29)	(19,9)	(40,3)	(-24,2)	(41,6)	(-28,2)	(-19,1)	
L2C -20>	(42,10)	(20,1)	(1,142)	(-1,25)	(21,11)	(-24,1)	(22,41)	(18,1)	(50,2)	(-2,10)	(2,6)	(-23,10)	(4,3)	(-21,30)	(19,10)	(-22,3)	
L2C -19>	(1,131)	(21,5)	(-1,7)	(22,19)	(-24,18)	(-22,3)	(41,1)	(-21,22)	(18,12)	(-23,6)	(19,66)	(-2,43)	(-3,30)	(20,18)	(40,6)	(-6,10)	
L2C -18>	(22,1)	(1,196)	(40,2)	(39,1)	(-24,1)	(18,2)	(17,1)	(19,1)	(-3,4)	(-25,1)	(42,0)	(21,0)	(0,0)	(-4,1)	(2,3)	(-5,0)	
L2C -17>	(8,10)	(1,170)	(43,3)	(16,13)	(-27,5)	(3,20)	(-5,44)	(23,1)	(-6,2)	(38,13)	(15,11)	(-12,7)	(-4,20)	(-25,5)	(26,5)	(2,3)	
L2C -16>	(17,36)	(-5,108)	(18,17)	(38,25)	(24,25)	(14,39)	(0,86)	(52,9)	(16,114)	(1,88)	(31,17)	(-6,6)	(21,1)	(-1,32)	(8,79)	(2,17)	
L2C -15>	(22,7)	(2,74)	(7,24)	(21,7)	(14,14)	(1,227)	(23,11)	(-1,61)	(3,21)	(24,6)	(8,5)	(-7,1)	(0,14)	(16,3)	(28,8)	(-22,3)	
L2C -14>	(14,8)	(22,19)	(-1,32)	(7,26)	(1,88)	(21,23)	(2,8)	(-12,25)	(6,2)	(15,11)	(-15,223)	(13,4)	(-21,11)	(-22,12)	(8,24)	(-13,57)	
L2C -13>	(-1,151)	(12,15)	(21,13)	(43,4)	(9,2)	(22,7)	(1,50)	(13,26)	(-2,15)	(-22,9)	(15,40)	(-23,3)	(14,21)	(-12,13)	(-9,10)	(2,12)	
L2C -12>	(0,10)	(12,121)	(-1,98)	(4,7)	(6,31)	(7,43)	(-2,24)	(13,1)	(1,12)	(11,39)	(25,29)	(10,7)	(8,7)	(19,6)	(20,10)	(21,8)	
L2C -11>	(-5,4)	(-9,3)	(-1,6)	(22,2)	(50,1)	(1,3)	(-15,1)	(10,10)	(-2,9)	(7,3)	(8,5)	(16,9)	(-10,4)	(43,6)	(11,3)	(12,3)	
L2C -10>	(24,21)	(-1,8)	(-11,1)	(2,5)	(-14,3)	(-13,4)	(8,15)	(-29,2)	(13,4)	(7,9)	(9,11)	(31,32)	(29,2)	(1,14)	(25,6)	(17,5)	
L2C -9>	(8,61)	(7,38)	(23,1)	(-1,27)	(16,4)	(35,3)	(10,8)	(31,3)	(4,4)	(1,32)	(-15,4)	(25,5)	(0,4)	(-14,8)	(43,10)	(2,6)	
L2C -8>	(-6,43)	(-14,31)	(22,25)	(-1,39)	(-21,28)	(1,98)	(-20,19)	(10,1)	(7,180)	(-22,20)	(-7,19)	(0,19)	(8,72)	(43,57)	(-13,35)	(15,24)	
L2C -7>	(2,5)	(-15,23)	(-1,217)	(1,86)	(6,27)	(-8,35)	(43,34)	(21,31)	(-7,28)	(7,94)	(8,73)	(14,32)	(-29,9)	(0,41)	(-21,45)	(42,1)	
L2C -6>	(1,198)	(-5,1)	(2,7)	(-28,2)	(-7,17)	(-1,8)	(6,36)	(22,5)	(25,3)	(12,13)	(0,5)	(8,7)	(7,15)	(-21,15)	(14,9)	(-10,3)	
L2C -5>	(22,29)	(3,1)	(1,239)	(21,26)	(43,57)	(0,222)	(-1,49)	(-22,21)	(-21,24)	(-43,5)	(5,2)	(48,0)	(-10,0)	(2,4)	(24,1)	(-2,1)	
L2C -4>	(2,23)	(1,208)	(-22,22)	(-21,30)	(22,13)	(-2,6)	(-1,8)	(0,170)	(25,2)	(7,6)	(-16,3)	(43,12)	(21,19)	(-43,2)	(3,1)	(5,12)	
L2C -3>	(1,204)	(-1,12)	(2,2)	(-21,170)	(21,15)	(0,182)	(8,7)	(43,32)	(-18,1)	(-43,16)	(22,44)	(-2,3)	(44,19)	(4,6)	(-22,12)	(-42,5)	
L2C -2>	(0,132)	(1,200)	(22,18)	(43,14)	(-43,8)	(3,10)	(14,3)	(2,1)	(-1,20)	(-21,51)	(21,24)	(44,6)	(-4,2)	(-22,61)	(10,1)	(23,1)	
L2C -1>	(-42,6)	(-21,230)	(22,131)	(-1,11)	(2,7)	(-43,7)	(44,32)	(12,4)	(-22,27)	(-20,8)	(11,3)	(43,8)	(1,154)	(0,131)	(21,5)	(-2,1)	
L2C 0>	(-22,12)	(-43,2)	(22,4)	(-6,1)	(7,0)	(0,206)	(-21,15)	(21,3)	(1,80)	(-19,0)	(-20,0)	(-42,0)	(43,0)	(-1,10)	(-37,0)	(5,0)	
L2C 1>	(1,150)	(-5,5)	(-4,1)	(0,3)	(-21,1)	(-57,9)	(-3,3)	(-22,5)	(12,11)	(-2,9)	(21,6)	(19,4)	(22,13)	(11,11)	(5,10)	(-1,9)	
L2C 2>	(17,3)	(1,245)	(-6,3)	(-26,1)	(-9,1)	(12,2)	(-2,6)	(2,4)	(-3,7)	(-5,21)	(3,2)	(-1,2)	(-4,3)	(5,2)	(-22,1)	(16,2)	
L2C 3>	(18,1)	(1,119)	(-4,31)	(19,17)	(37,5)	(-3,37)	(-48,8)	(-5,215)	(-6,16)	(17,22)	(-26,22)	(-1,14)	(-27,22)	(16,30)	(38,14)	(-2,12)	
L2C 4>	(1,87)	(37,2)	(38,9)	(-1,3)	(-3,4)	(-5,190)	(17,9)	(-26,11)	(-6,14)	(-4,18)	(2,11)	(16,19)	(-48,4)	(22,1)	(-27,34)	(-12,7)	
L2C 5>	(-3,0)	(-27,1)	(-7,0)	(7,0)	(17,133)	(38,2)	(-18,22)	(13,0)	(-39,22)	(-6,3)	(-21,0)	(1,0)	(-5,5)	(-4,0)	(21,0)	(-12,1)	
L2C 6>	(7,194)	(-22,6)	(22,6)	(-8,8)	(-35,3)	(-14,32)	(16,4)	(2,19)	(15,2)	(-1,15)	(0,32)	(-6,219)	(1,66)	(-23,2)	(-7,32)	(-5,7)	
L2C 7>	(7,55)	(-13,12)	(-30,11)	(-7,75)	(22,11)	(-6,172)	(2,60)	(-8,11)	(1,85)	(-1,13)	(0,56)	(8,28)	(-14,254)	(-15,23)	(-21,15)	(14,1)	
L2C 8>	(-1,154)	(43,5)	(-16,7)	(-22,21)	(-15,13)	(13,29)	(1,44)	(2,39)	(-2,30)	(6,127)	(0,17)	(35,2)	(7,49)	(-14,18)	(-6,81)	(-8,26)	
L2C 9>	(22,7)	(19,1)	(-1,39)	(-8,6)	(-22,20)	(1,23)	(-7,3)	(35,5)	(-21,8)	(-44,5)	(6,10)	(-17,16)	(-16,7)	(-30,5)	(-37,3)	(-2,48)	
L2C 10>	(-25,9)	(-1,17)	(1,16)	(0,4)	(-2,103)	(-9,6)	(-21,1)	(-24,1)	(15,1)	(-16,35)	(-23,1)	(5,9)	(7,1)	(-31,3)	(8,1)	(-4,1)	
L2C 11>	(1,197)	(-21,0)	(-2,1)	(0,0)	(-4,2)	(19,0)	(1,0)	(1,0)	(1,0)	(1,0)	(1,0)	(1,0)	(1,0)	(1,0)	(1,0)	(1,0)	
L2C 12>	(2,217)	(-4,4)	(-5,1)	(-8,1)	(-12,1)	(-21,1)	(7,5)	(-2,0)	(-11,0)	(1,0)	(1,0)	(1,0)	(1,0)	(1,0)	(1,0)	(1,0)	
L2C 13>	(-4,15)	(-12,1)	(15,29)	(-8,31)	(-13,44)	(1,23)	(-6,45)	(-7,21)	(7,10)	(30,9)	(-30,4)	(-21,17)	(-29,4)	(-35,3)	(-14,106)	(-15,12)	
L2C 14>	(-8,46)	(-4,37)	(8,22)	(-1,17)	(-29,10)	(-21,25)	(21,53)	(7,196)	(15,30)	(1,122)	(-14,48)	(16,1)	(-13,13)	(-6,180)	(-15,69)	(-7,35)	
L2C 15>	(14,11)	(29,9)	(7,25)	(-6,35)	(-22,34)	(-14,36)	(-2,50)	(-8,60)	(1,38)	(-15,49)	(21,5)	(-21,20)	(-28,1)	(-1,97)	(6,11)	(-7,29)	
L2C 16>	(22,39)	(-22,14)	(-1,5)	(-16,25)	(1,30)	(-21,128)	(-43,12)	(-41,1)	(6,1)	(-42,6)	(0,40)	(-15,1)	(21,13)	(-8,1)	(-17,2)	(28,0)	
L2C 17>	(1,152)	(-19,0)	(-21,5)	(21,11)	(-43,1)	(-16,2)	(24,0)	(-22,7)	(0,3)	(-1,0)	(-15,0)	(22,2)	(23,0)	(4,0)	(-2,0)	(1,0)	
L2C 18>	(1,68)	(21,21)	(-43,43)	(23,7)	(-21,180)	(22,58)	(-22,90)	(-1,11)	(0,12)	(2,3)	(-42,30)	(-18,5)	(20,1)	(-17,44)	(-2,2)	(24,1)	
L2C 19>	(-1,11)	(-21,155)	(2,0)	(-40,2)	(-22,149)	(22,5)	(19,1)	(-44,0)	(0,45)	(-16,0)	(-43,42)	(21,5)	(-18,14)	(-19,11)	(1,22)	(-42,5)	
L2C 20>	(1,57)	(22,20)	(-21,203)	(-18,3)	(-43,52)	(23,2)	(-19,28)	(-1,44)	(0,36)	(-4,2)	(-22,153)	(-42,4)	(2,9)	(-41,11)	(-3,2)	(21,9)	
L2C 21>	(1,179)	(-22,143)	(22,67)	(-42,29)	(-43,129)	(-21,243)	(23,2)	(0,18)	(-15,2)	(-20,44)	(-28,3)	(-1,8)	(21,14)	(-7,4)	(-14,1)	(-6,2)	
L2C 22>	(-1,20)	(-43,29)	(19,9)	(1,22)	(-21,162)	(-24,5)	(20,6)	(-22,36)	(21,22)	(-46,1)	(22,5)	(-20,2)	(-3,4)	(-44,3)	(-2,6)	(0,5)	
L2C 23>	(-22,25)	(-1,23)	(21,9)	(1,132)	(-21,106)	(-3,12)	(22,29)	(2,5)	(-24,11)	(19,14)	(20,23)	(-14,1)	(-44,12)	(-45,10)	(-2,9)	(-23,2)	
L2C 24>	(3,11)	(1,166)	(-3,72)	(-23,57)	(-21,87)	(18,2)	(-22,54)	(-4,7)	(-46,40)	(19,96)	(20,15)	(7,16)	(-16,14)	(-2,56)	(22,44)	(-45,24)	
L2C 25>	(-47,11)	(-18,9)	(-3,18)	(-25,25)	(-10,1)	(1,83)	(-19,29)	(-13,14)	(-2,20)	(-24,16)	(18,17)	(-26,10)	(2,6)	(-14,7)	(0,49)	(-46,14)	
L2C 26>	(1,24)	(-6,6)	(16,9)	(-27,8)	(-4,43)	(22,11)	(6,1)	(4,6)	(2,5)	(-13,21)	(-25,19)	(17,7)	(-47,6)	(-26,8)	(-5,12)	(-28,8)	
L2C 27>	(-48,11)	(-21,8)	(-26,21)	(-50,2)	(16,38)	(-49,29)	(-14,13)	(7,7)	(-13,3)	(8,4)	(-12,3)	(21,2)	(-22,3)	(-7,1)	(-5,25)	(-6,5)	
L2C 28>	(-29,37)	(15,7)	(-21,9)	(0,12)	(-12,4)	(-1,6)	(-14,21)	(-49,1)	(7,16)	(-48,4)	(-7,9)	(-50,40)	(21,5)	(-6,12)	(1,4)	(-42,3)	
L2C 29>	(-50,41)	(7,28)	(-22,12)	(-7,23)	(-1,9)	(-29,4)	(-21,11)	(-14,38)	(-33,1)	(22,7)	(-30,7)	(21,15)	(16,4)	(8,11)	(-8,20)	(-28,43)	
L2C 30>	(-22,6)	(1,3)	(-7,2)	(-29,21)	(-50,6)	(-45,3)	(-8,7)	(13,3)	(21,2)	(-13,1)	(-14,2)	(-30,2)	(-21,2)	(-1,8)	(-28,5)	(9,1)	
L2C 31>	(-22,2)	(0,3)	(-21,3)	(19,2)	(5,9)	(-27,1)	(-30,19)	(-14,14)	(13,1)	(-52,2)	(-53,1)	(-32,3)	(-29,28)	(-28,3)	(-40,1)	(-17,2)	
L2C 32>	(-38,1)	(0,1)	(1,1)	(-32,2)	(-28,3)	(-27,8)	(-25,1)	(-52,5)	(9,2)	(-41,1)	(-45,6)	(-11,2)	(-33,11)	(-31,5)	(-35,1)	(-40,2)	
L2C 33>	(-36,2)	(-27,1)	(-35,5)	(1,1)	(-14,1)	(-49,1)	(-13,2)	(-28,1)	(-7,1)	(-34,9)	(5,1)	(-53,1)	(-55,2)	(-46,3)	(-57,1)	(-59,1)	
L2C 34>	(-35,5)	(-57,9)	(-55,2)	(-29,2)	(-36,1)	(-27,15)	(1,2)	(-33,4)	(-28,11)	(-43,1)	(-42,1)	(-54,1)	(-50,2)	(-7,8)	(-13,1)	(-5,1)	
L2C 35>	(-50,6)	(-58,3)	(-57,9)	(-34,16)	(-56,6)	(-51,12)	(-44,5)	(-28,37)	(1,17)	(-14,4)	(-48,3)	(-36,15)	(-43,4)	(-7,11)	(-46,1)	(-33,2)	
L2C 36>	(-45,11)	(-7,34)	(-27,1)	(-28,4)	(-57,32)	(-59,3)	(-1,6)	(-35,49)	(-34,42)	(-37,14)	(-51,26)	(-8,5)	(-5,7)	(-43,5)	(-15,4)	(-58,8)	
L2C 37>	(-42,28)	(0,6)	(-1,17)	(-46,2)	(-57,5)	(-36,5)	(-8,8)	(-59,6)	(-44,4)	(-30,4)	(-43,29)	(-21,84)	(-20,1)	(-31,2)	(1,13)	(-45,4)	
L2C 38>	(-21,208)	(-42,2)	(-22,219)	(-1,41)	(0,26)	(-43,172)	(-44,46)	(1,18)	(-46,3)	(-5,1)	(-19,1)	(5,1)	(-37,5)	(-45,8)	(-36,12)	(-23,2)	
L2C 39>	(-43,32)	(-22,64)	(-21,100)	(-1,19)	(-44,16)	(0,4)	(-23,1)	(1,16)	(-38,32)	(-52,2)	(21,2)	(3,1)	(-42,5)	(-37,1)	(-39,1)	(-60,1)	
L2C 40>	(-43,77)	(0,31)	(-21,236)	(-1,5)	(-39,8)	(1,52)	(-42,12)	(2,2)	(-44,2)	(-23,2)	(-8,1)	(-20,2)	(-2,1)	(-22,37)	(3,2)	(-18,2)	
L2C 41>	(-22,141)	(-43,41)	(-21,162)	(-40,11)	(0,22)	(-19,16)	(-37,0)	(-1,30)	(-23,2)	(-36,0)	(-42,3)	(-44,5)	(1,44)	(-16,0)	(2,0)	(-20,2)	
L2C 42>	(-43,58)	(-21,177)	(1,56)	(-41,27)	(-19,3)	(-1,8)	(-22,38)	(0,21)	(-20,35)	(-44,2)	(3,1)	(-42,23)	(-2,2)	(2,2)	(-28,3)	(-18,0)	
L2C 43>	(-22,171)	(-1,20)	(-43,2)	(-21,236)	(-16,0)	(1,37)	(-44,22)	(3,0)	(-42,87)	(-20,4)	(-2,0)	(-57,0)	(-52,1)	(0,26)	(-17,0)	(-18,0)	
L2C 44>	(-2,1)	(-43,101)	(-22,242)	(-42,1)	(-1,101)	(0,14)	(14,1)	(-21,70)	(1,48)	(-7,2)	(-23,1)	(3,0)	(2,0)	(4,0)	(-28,0)	(-51,0)	
L2C 45>	(-22,2)	(1,134)	(-1,22)	(-2,46)	(2,5)	(-21,25)	(3,5)	(-24,3)	(-45,4)	(4,3)	(-3,1)	(-23,7)	(-46,2)	(-6,2)	(-44,9)	(-5,0)	
L2C 46>	(-43,4)	(-4,1)	(1,89)	(-3,81)	(-2,28)	(2,14)	(-21,9)	(-20,1)	(-37,1)	(-54,1)	(-45,23)	(-24,21)	(-25,2)	(-49,2)	(3,9)	(-23,2)	
L2C 47>	(-43,3)	(-48,8)	(1,36)	(-4,14)	(-40,1)	(-25,6)	(-3,4)	(-46,11)	(-28,2)	(-33,8)	(-29,7)	(-50,6)	(-7,2)	(2,4)	(-5,3)	(-49,4)	
L2C 48>	(-52,6)	(-50,4)	(-54,3)	(-22,2)	(-47,11)	(-5,28)	(-25,2)	(1,6)	(-27,3)	(-6,2)	(-29,2)	(-21,4)	(-26,4)	(-53,1)	(-48,3)	(-51,2)	
L2C 49>	(-21,21)	(-48,31)	(-50,4)	(-29,6)	(-23,2)	(-5,36)	(-44,3)	(-26,4)	(-6,20)	(1,4)	(-7,90)	(0,13)	(-28,9)	(-47,2)	(-8,7)	(-14,3)	
L2C 50>	(-22,62)	(-8,17)	(-49,41)	(-36,12)	(-7,42)	(-28,32)	(-50,34)	(-6,6)	(-51,41)	(-35,18)	(0,10)	(-43,4)	(-21,26)	(-52,18)	(-29,33)	(-54,6)	
L2C 51>	(-43,2)	(-45,2)	(-8,3)	(-35,2)	(-29,3)	(-57,4)	(-22,3)	(-34,4)	(-55,2)	(-36,1)	(-52,4)	(-9,1)	(-1,4)	(-28,1)	(-7,5)	(-37,3)	
L2C 52>	(-52,5)	(-51,10)	(-23,2)	(-8,2)	(-53,8)	(-44,4)	(-22,1)	(-24,1)	(-34,3)	(-2,1)	(-46,2)	(-31,2)	(-45,6)	(-37,2)	(-35,2)	(-57,1)	
L2C 53>	(-53,37)	(-52,11)	(-54,1)	(-37,1)	(1,0)	(1,0)	(1,0)	(1,0)	(1,0)	(1,0)	(1,0)	(1,0)	(1,0)	(1,0)	(1,0)	(1,0)	
L2C 54>	(-44,2)	(-36,1)	(-35,1)	(-7,1)	(-46,1)	(1,0)	(1,0)	(1,0)	(1,0)	(1,0)	(1,0)	(1,0)	(1,0)	(1,0)	(1,0)	(1,0)	
L2C 55>	(-44,1)	(-35,5)	(-36,1)	(-34,10)	(-57,1)	(-51,1)	(-52,1)	(1,0)	(1,0)	(1,0)	(1,0)	(1,0)	(1,0)	(1,0)	(1,0)	(1,0)	
L2C 56>	(-43,2)	(-35,1)	(-57,1)	(1,0)	(1,0)	(1,0)	(1,0)	(1,0)	(1,0)	(1,0)	(1,0)	(1,0)	(1,0)	(1,0)	(1,0)	(1,0)	
L2C 57>	(-7,1)	(-49,1)	(-56,1)	(1,0)	(1,0)	(1,0)	(1,0)	(1,0)	(1,0)	(1,0)	(1,0)	(1,0)	(1,0)	(1,0)	(1,0)	(1,0)	
L2C 58>	(-7,1)	(-36,2)	(-35,1)	(-37,2)	(-34,1)	(-44,1)	(-59,1)	(1,0)	(1,0)	(1,0)	(1,0)	(1,0)	(1,0)	(1,0)	(1,0)	(1,0)	
L2C 59>	(-57,1)	(-30,2)	(-43,2)	(1,0)	(1,0)	(1,0)	(1,0)	(1,0)	(1,0)	(1,0)	(1,0)	(1,0)	(1,0)	(1,0)	(1,0)	(1,0)	
L2C 60>	(-22,6)	(-21,5)	(-1,2)	(-43,2)	(1,0)	(1,0)	(1,0)	(1,0)	(1,0)	(1,0)	(1,0)	(1,0)	(1,0)	(1,0)	(1,0)	(1,0)	
L2C 61>	(-43,5)	(-22,4)	(-44,3)	(-21,2)	(1,0)	(1,0)	(1,0)	(1,0)	(1,0)	(1,0)	(1,0)	(1,0)	(1,0)	(1,0)	(1,0)	(1,0)	
L2C 62>	(-22,2)	(-21,2)	(1,1)	(-46,1)	(1,0)	(1,0)	(1,0)	(1,0)	(1,0)	(1,0)	(1,0)	(1,0)	(1,0)	(1,0)	(1,0)	(1,0)	
L2C 63>	(-21,9)	(-41,8)	(-22,1)	(-43,1)	(1,0)	(1,0)	(1,0)	(1,0)	(1,0)	(1,0)	(1,0)	(1,0)	(1,0)	(1,0)	(1,0)	(1,0)	

DRAM Statistics
 CHANNEL 0
 RQ ROW_BUFFER_HIT:      11314  ROW_BUFFER_MISS:      15520
 DBUS_CONGESTED:      11545
 WQ ROW_BUFFER_HIT:         42  ROW_BUFFER_MISS:        382  FULL:          0

 AVG_CONGESTED_CYCLE: 6
