
*** ChampSim Multicore Out-of-Order Simulator ***

Warmup Instructions: 1000000
Simulation Instructions: 10000000
Number of CPUs: 1
LLC sets: 2048
LLC ways: 16
Off-chip DRAM Size: 4096 MB Channels: 1 Width: 64-bit Data Rate: 3200 MT/s

CPU 0 runs /home/virtualcse/Data-Prefetching/ChampSim/dpc3_traces/620.omnetpp_s-874B.champsimtrace.xz
Ultra pref. initializing...
Ultra pref. initialized
Ultra pref. initializing...
Ultra pref. initialized

Warmup complete CPU 0 instructions: 1000003 cycles: 548146 (Simulation time: 0 hr 0 min 2 sec) 

Heartbeat CPU 0 instructions: 10000002 cycles: 22462603 heartbeat IPC: 0.445184 cumulative IPC: 0.410688 (Simulation time: 0 hr 0 min 26 sec) 
Finished CPU 0 instructions: 10000001 cycles: 24383773 cumulative IPC: 0.410109 (Simulation time: 0 hr 0 min 29 sec) 

CPU 0 Branch Prediction Accuracy: 96.7094% MPKI: 4.878 Average ROB Occupancy at Mispredict: 99.3134

ChampSim completed all CPUs

Region of Interest Statistics

CPU 0 cumulative IPC: 0.410109 instructions: 10000001 cycles: 24383773
L1D TOTAL     ACCESS:    8831467  HIT:    8376682  MISS:     454785
L1D LOAD      ACCESS:    2256001  HIT:    2115078  MISS:     140923
L1D RFO       ACCESS:    1793940  HIT:    1776074  MISS:      17866
L1D PREFETCH  ACCESS:    4781526  HIT:    4485530  MISS:     295996
L1D WRITEBACK ACCESS:          0  HIT:          0  MISS:          0
L1D PREFETCH  REQUESTED:   45077145  ISSUED:   39788950  USEFUL:      50085  USELESS:     275147
L1D AVERAGE MISS LATENCY: 139.399 cycles
L1I TOTAL     ACCESS:    1147955  HIT:    1144108  MISS:       3847
L1I LOAD      ACCESS:    1147955  HIT:    1144108  MISS:       3847
L1I RFO       ACCESS:          0  HIT:          0  MISS:          0
L1I PREFETCH  ACCESS:          0  HIT:          0  MISS:          0
L1I WRITEBACK ACCESS:          0  HIT:          0  MISS:          0
L1I PREFETCH  REQUESTED:          0  ISSUED:          0  USEFUL:          0  USELESS:          0
L1I AVERAGE MISS LATENCY: 49.4076 cycles
L2C TOTAL     ACCESS:    1914814  HIT:    1019552  MISS:     895262
L2C LOAD      ACCESS:     140511  HIT:      54563  MISS:      85948
L2C RFO       ACCESS:      17291  HIT:       6692  MISS:      10599
L2C PREFETCH  ACCESS:    1657811  HIT:     860029  MISS:     797782
L2C WRITEBACK ACCESS:      99201  HIT:      98268  MISS:        933
L2C PREFETCH  REQUESTED:    5537983  ISSUED:    3919943  USEFUL:      28002  USELESS:     828265
L2C AVERAGE MISS LATENCY: 202.075 cycles
LLC TOTAL     ACCESS:     975354  HIT:     288242  MISS:     687112
LLC LOAD      ACCESS:      83422  HIT:      27229  MISS:      56193
LLC RFO       ACCESS:      10180  HIT:       3621  MISS:       6559
LLC PREFETCH  ACCESS:     800720  HIT:     177644  MISS:     623076
LLC WRITEBACK ACCESS:      81032  HIT:      79748  MISS:       1284
LLC PREFETCH  REQUESTED:          0  ISSUED:          0  USEFUL:       8047  USELESS:     642212
LLC AVERAGE MISS LATENCY: 206.026 cycles
Major fault: 0 Minor fault: 20675

L1D -512>	(0,105)	(2,14)	(68,8)	(28,10)	(292,3)	(4,31)	(-9,9)	(1,21)	(-255,2)	(10,4)	(5,3)	(-1,13)	(146,1)	(3,12)	(-2,2)	(60,2)	
L1D -511>	(1,1)	(1,0)	(1,0)	(1,0)	(1,0)	(1,0)	(1,0)	(1,0)	(1,0)	(1,0)	(1,0)	(1,0)	(1,0)	(1,0)	(1,0)	(1,0)	
L1D -510>	(146,1)	(265,1)	(18,2)	(1,0)	(1,0)	(1,0)	(1,0)	(1,0)	(1,0)	(1,0)	(1,0)	(1,0)	(1,0)	(1,0)	(1,0)	(1,0)	
L1D -509>	(1,0)	(1,0)	(1,0)	(1,0)	(1,0)	(1,0)	(1,0)	(1,0)	(1,0)	(1,0)	(1,0)	(1,0)	(1,0)	(1,0)	(1,0)	(1,0)	
L1D -508>	(1,0)	(1,0)	(1,0)	(1,0)	(1,0)	(1,0)	(1,0)	(1,0)	(1,0)	(1,0)	(1,0)	(1,0)	(1,0)	(1,0)	(1,0)	(1,0)	
L1D -507>	(1,0)	(1,0)	(1,0)	(1,0)	(1,0)	(1,0)	(1,0)	(1,0)	(1,0)	(1,0)	(1,0)	(1,0)	(1,0)	(1,0)	(1,0)	(1,0)	
L1D -506>	(1,0)	(1,0)	(1,0)	(1,0)	(1,0)	(1,0)	(1,0)	(1,0)	(1,0)	(1,0)	(1,0)	(1,0)	(1,0)	(1,0)	(1,0)	(1,0)	
L1D -505>	(5,1)	(1,0)	(1,0)	(1,0)	(1,0)	(1,0)	(1,0)	(1,0)	(1,0)	(1,0)	(1,0)	(1,0)	(1,0)	(1,0)	(1,0)	(1,0)	
L1D -504>	(98,2)	(47,1)	(2,1)	(1,0)	(1,0)	(1,0)	(1,0)	(1,0)	(1,0)	(1,0)	(1,0)	(1,0)	(1,0)	(1,0)	(1,0)	(1,0)	
L1D -503>	(18,1)	(1,0)	(1,0)	(1,0)	(1,0)	(1,0)	(1,0)	(1,0)	(1,0)	(1,0)	(1,0)	(1,0)	(1,0)	(1,0)	(1,0)	(1,0)	
L1D -502>	(98,1)	(112,1)	(47,1)	(79,1)	(1,0)	(1,0)	(1,0)	(1,0)	(1,0)	(1,0)	(1,0)	(1,0)	(1,0)	(1,0)	(1,0)	(1,0)	
L1D -501>	(5,1)	(0,1)	(1,0)	(1,0)	(1,0)	(1,0)	(1,0)	(1,0)	(1,0)	(1,0)	(1,0)	(1,0)	(1,0)	(1,0)	(1,0)	(1,0)	
L1D -500>	(112,1)	(5,1)	(18,1)	(99,1)	(98,1)	(1,0)	(1,0)	(1,0)	(1,0)	(1,0)	(1,0)	(1,0)	(1,0)	(1,0)	(1,0)	(1,0)	
L1D -499>	(1,1)	(1,0)	(1,0)	(1,0)	(1,0)	(1,0)	(1,0)	(1,0)	(1,0)	(1,0)	(1,0)	(1,0)	(1,0)	(1,0)	(1,0)	(1,0)	
L1D -498>	(69,1)	(106,1)	(93,1)	(47,1)	(1,0)	(1,0)	(1,0)	(1,0)	(1,0)	(1,0)	(1,0)	(1,0)	(1,0)	(1,0)	(1,0)	(1,0)	
L1D -497>	(1,0)	(1,0)	(1,0)	(1,0)	(1,0)	(1,0)	(1,0)	(1,0)	(1,0)	(1,0)	(1,0)	(1,0)	(1,0)	(1,0)	(1,0)	(1,0)	
L1D -496>	(82,1)	(135,1)	(332,1)	(1,0)	(1,0)	(1,0)	(1,0)	(1,0)	(1,0)	(1,0)	(1,0)	(1,0)	(1,0)	(1,0)	(1,0)	(1,0)	
L1D -495>	(1,1)	(0,2)	(4,1)	(1,0)	(1,0)	(1,0)	(1,0)	(1,0)	(1,0)	(1,0)	(1,0)	(1,0)	(1,0)	(1,0)	(1,0)	(1,0)	
L1D -494>	(102,1)	(334,1)	(1,1)	(99,1)	(1,0)	(1,0)	(1,0)	(1,0)	(1,0)	(1,0)	(1,0)	(1,0)	(1,0)	(1,0)	(1,0)	(1,0)	
L1D -493>	(1,2)	(5,1)	(1,0)	(1,0)	(1,0)	(1,0)	(1,0)	(1,0)	(1,0)	(1,0)	(1,0)	(1,0)	(1,0)	(1,0)	(1,0)	(1,0)	
L1D -492>	(79,1)	(5,1)	(492,1)	(0,1)	(1,2)	(1,0)	(1,0)	(1,0)	(1,0)	(1,0)	(1,0)	(1,0)	(1,0)	(1,0)	(1,0)	(1,0)	
L1D -491>	(0,1)	(1,1)	(1,0)	(1,0)	(1,0)	(1,0)	(1,0)	(1,0)	(1,0)	(1,0)	(1,0)	(1,0)	(1,0)	(1,0)	(1,0)	(1,0)	
L1D -490>	(47,2)	(0,1)	(1,0)	(1,0)	(1,0)	(1,0)	(1,0)	(1,0)	(1,0)	(1,0)	(1,0)	(1,0)	(1,0)	(1,0)	(1,0)	(1,0)	
L1D -489>	(0,1)	(490,1)	(1,0)	(1,0)	(1,0)	(1,0)	(1,0)	(1,0)	(1,0)	(1,0)	(1,0)	(1,0)	(1,0)	(1,0)	(1,0)	(1,0)	
L1D -488>	(47,6)	(79,1)	(342,1)	(1,1)	(65,1)	(1,0)	(1,0)	(1,0)	(1,0)	(1,0)	(1,0)	(1,0)	(1,0)	(1,0)	(1,0)	(1,0)	
L1D -487>	(13,1)	(1,2)	(0,1)	(1,0)	(1,0)	(1,0)	(1,0)	(1,0)	(1,0)	(1,0)	(1,0)	(1,0)	(1,0)	(1,0)	(1,0)	(1,0)	
L1D -486>	(1,1)	(0,1)	(98,1)	(2,1)	(44,1)	(146,1)	(55,1)	(1,0)	(1,0)	(1,0)	(1,0)	(1,0)	(1,0)	(1,0)	(1,0)	(1,0)	
L1D -485>	(0,1)	(1,0)	(1,0)	(1,0)	(1,0)	(1,0)	(1,0)	(1,0)	(1,0)	(1,0)	(1,0)	(1,0)	(1,0)	(1,0)	(1,0)	(1,0)	
L1D -484>	(34,1)	(85,2)	(93,1)	(0,2)	(99,1)	(1,0)	(1,0)	(1,0)	(1,0)	(1,0)	(1,0)	(1,0)	(1,0)	(1,0)	(1,0)	(1,0)	
L1D -483>	(1,2)	(483,1)	(3,1)	(92,1)	(348,1)	(0,1)	(1,0)	(1,0)	(1,0)	(1,0)	(1,0)	(1,0)	(1,0)	(1,0)	(1,0)	(1,0)	
L1D -482>	(98,3)	(424,1)	(105,1)	(152,1)	(1,0)	(1,0)	(1,0)	(1,0)	(1,0)	(1,0)	(1,0)	(1,0)	(1,0)	(1,0)	(1,0)	(1,0)	
L1D -481>	(158,1)	(140,1)	(4,1)	(18,1)	(1,0)	(1,0)	(1,0)	(1,0)	(1,0)	(1,0)	(1,0)	(1,0)	(1,0)	(1,0)	(1,0)	(1,0)	
L1D -480>	(14,1)	(146,2)	(0,1)	(4,1)	(79,1)	(99,1)	(1,0)	(1,0)	(1,0)	(1,0)	(1,0)	(1,0)	(1,0)	(1,0)	(1,0)	(1,0)	
L1D -479>	(348,1)	(12,1)	(350,1)	(1,0)	(1,0)	(1,0)	(1,0)	(1,0)	(1,0)	(1,0)	(1,0)	(1,0)	(1,0)	(1,0)	(1,0)	(1,0)	
L1D -478>	(5,1)	(28,1)	(1,1)	(0,1)	(67,1)	(47,1)	(352,1)	(1,0)	(1,0)	(1,0)	(1,0)	(1,0)	(1,0)	(1,0)	(1,0)	(1,0)	
L1D -477>	(8,1)	(1,1)	(0,1)	(1,0)	(1,0)	(1,0)	(1,0)	(1,0)	(1,0)	(1,0)	(1,0)	(1,0)	(1,0)	(1,0)	(1,0)	(1,0)	
L1D -476>	(-1,1)	(3,1)	(1,1)	(102,1)	(0,1)	(58,1)	(1,0)	(1,0)	(1,0)	(1,0)	(1,0)	(1,0)	(1,0)	(1,0)	(1,0)	(1,0)	
L1D -475>	(2,1)	(136,1)	(4,1)	(-1,1)	(0,1)	(3,1)	(442,1)	(1,0)	(1,0)	(1,0)	(1,0)	(1,0)	(1,0)	(1,0)	(1,0)	(1,0)	
L1D -474>	(55,1)	(0,1)	(5,1)	(264,1)	(146,1)	(1,1)	(1,0)	(1,0)	(1,0)	(1,0)	(1,0)	(1,0)	(1,0)	(1,0)	(1,0)	(1,0)	
L1D -473>	(1,1)	(0,1)	(140,2)	(1,0)	(1,0)	(1,0)	(1,0)	(1,0)	(1,0)	(1,0)	(1,0)	(1,0)	(1,0)	(1,0)	(1,0)	(1,0)	
L1D -472>	(1,2)	(4,1)	(356,1)	(101,1)	(5,1)	(336,1)	(0,1)	(1,0)	(1,0)	(1,0)	(1,0)	(1,0)	(1,0)	(1,0)	(1,0)	(1,0)	
L1D -471>	(1,2)	(438,2)	(142,1)	(366,1)	(124,1)	(146,1)	(360,1)	(1,0)	(1,0)	(1,0)	(1,0)	(1,0)	(1,0)	(1,0)	(1,0)	(1,0)	
L1D -470>	(0,7)	(45,1)	(1,0)	(1,0)	(1,0)	(1,0)	(1,0)	(1,0)	(1,0)	(1,0)	(1,0)	(1,0)	(1,0)	(1,0)	(1,0)	(1,0)	
L1D -469>	(1,1)	(116,1)	(82,1)	(1,0)	(1,0)	(1,0)	(1,0)	(1,0)	(1,0)	(1,0)	(1,0)	(1,0)	(1,0)	(1,0)	(1,0)	(1,0)	
L1D -468>	(107,1)	(69,1)	(1,2)	(346,1)	(1,0)	(1,0)	(1,0)	(1,0)	(1,0)	(1,0)	(1,0)	(1,0)	(1,0)	(1,0)	(1,0)	(1,0)	
L1D -467>	(0,2)	(439,1)	(126,1)	(-1,1)	(1,0)	(1,0)	(1,0)	(1,0)	(1,0)	(1,0)	(1,0)	(1,0)	(1,0)	(1,0)	(1,0)	(1,0)	
L1D -466>	(160,1)	(0,2)	(344,1)	(1,1)	(4,1)	(82,1)	(1,0)	(1,0)	(1,0)	(1,0)	(1,0)	(1,0)	(1,0)	(1,0)	(1,0)	(1,0)	
L1D -465>	(364,1)	(29,1)	(-1,1)	(5,1)	(1,0)	(1,0)	(1,0)	(1,0)	(1,0)	(1,0)	(1,0)	(1,0)	(1,0)	(1,0)	(1,0)	(1,0)	
L1D -464>	(385,3)	(14,1)	(-1,1)	(80,1)	(0,2)	(3,1)	(366,1)	(467,1)	(461,1)	(1,0)	(1,0)	(1,0)	(1,0)	(1,0)	(1,0)	(1,0)	
L1D -463>	(0,2)	(144,1)	(122,1)	(1,0)	(1,0)	(1,0)	(1,0)	(1,0)	(1,0)	(1,0)	(1,0)	(1,0)	(1,0)	(1,0)	(1,0)	(1,0)	
L1D -462>	(129,1)	(0,4)	(366,1)	(1,1)	(77,1)	(268,1)	(1,0)	(1,0)	(1,0)	(1,0)	(1,0)	(1,0)	(1,0)	(1,0)	(1,0)	(1,0)	
L1D -461>	(108,2)	(465,1)	(68,1)	(29,1)	(0,1)	(-10,1)	(1,0)	(1,0)	(1,0)	(1,0)	(1,0)	(1,0)	(1,0)	(1,0)	(1,0)	(1,0)	
L1D -460>	(79,1)	(97,1)	(85,2)	(0,2)	(344,1)	(1,1)	(47,1)	(1,0)	(1,0)	(1,0)	(1,0)	(1,0)	(1,0)	(1,0)	(1,0)	(1,0)	
L1D -459>	(120,1)	(459,1)	(368,1)	(1,1)	(300,1)	(5,1)	(2,1)	(234,1)	(124,1)	(1,0)	(1,0)	(1,0)	(1,0)	(1,0)	(1,0)	(1,0)	
L1D -458>	(0,2)	(374,1)	(354,1)	(362,1)	(1,2)	(134,1)	(91,1)	(-6,1)	(98,1)	(1,0)	(1,0)	(1,0)	(1,0)	(1,0)	(1,0)	(1,0)	
L1D -457>	(1,2)	(0,2)	(19,1)	(112,1)	(5,1)	(2,1)	(1,0)	(1,0)	(1,0)	(1,0)	(1,0)	(1,0)	(1,0)	(1,0)	(1,0)	(1,0)	
L1D -456>	(71,1)	(374,1)	(1,2)	(91,1)	(5,2)	(0,3)	(372,1)	(441,1)	(140,1)	(385,2)	(370,1)	(304,1)	(-1,1)	(1,0)	(1,0)	(1,0)	
L1D -455>	(1,3)	(68,17)	(5,1)	(2,4)	(86,1)	(124,1)	(29,1)	(4,1)	(1,0)	(1,0)	(1,0)	(1,0)	(1,0)	(1,0)	(1,0)	(1,0)	
L1D -454>	(98,1)	(0,14)	(1,20)	(57,2)	(83,1)	(457,3)	(442,1)	(85,2)	(374,1)	(1,0)	(1,0)	(1,0)	(1,0)	(1,0)	(1,0)	(1,0)	
L1D -453>	(1,2)	(112,2)	(334,1)	(2,2)	(110,1)	(447,1)	(1,0)	(1,0)	(1,0)	(1,0)	(1,0)	(1,0)	(1,0)	(1,0)	(1,0)	(1,0)	
L1D -452>	(91,1)	(1,3)	(69,1)	(318,1)	(378,1)	(366,1)	(1,0)	(1,0)	(1,0)	(1,0)	(1,0)	(1,0)	(1,0)	(1,0)	(1,0)	(1,0)	
L1D -451>	(2,1)	(100,1)	(378,1)	(70,3)	(0,1)	(1,1)	(120,1)	(1,0)	(1,0)	(1,0)	(1,0)	(1,0)	(1,0)	(1,0)	(1,0)	(1,0)	
L1D -450>	(1,1)	(5,1)	(0,1)	(97,1)	(290,1)	(1,0)	(1,0)	(1,0)	(1,0)	(1,0)	(1,0)	(1,0)	(1,0)	(1,0)	(1,0)	(1,0)	
L1D -449>	(68,96)	(2,3)	(110,3)	(1,1)	(1,0)	(1,0)	(1,0)	(1,0)	(1,0)	(1,0)	(1,0)	(1,0)	(1,0)	(1,0)	(1,0)	(1,0)	
L1D -448>	(61,1)	(378,1)	(1,1)	(356,1)	(68,4)	(380,1)	(4,1)	(48,1)	(0,2)	(1,0)	(1,0)	(1,0)	(1,0)	(1,0)	(1,0)	(1,0)	
L1D -447>	(5,9)	(414,4)	(0,2)	(1,3)	(-6,1)	(108,1)	(-14,1)	(132,1)	(-28,2)	(42,1)	(1,0)	(1,0)	(1,0)	(1,0)	(1,0)	(1,0)	
L1D -446>	(61,1)	(2,1)	(77,1)	(0,2)	(1,1)	(96,1)	(4,1)	(382,1)	(1,0)	(1,0)	(1,0)	(1,0)	(1,0)	(1,0)	(1,0)	(1,0)	
L1D -445>	(5,3)	(2,3)	(-10,1)	(380,1)	(1,1)	(1,0)	(1,0)	(1,0)	(1,0)	(1,0)	(1,0)	(1,0)	(1,0)	(1,0)	(1,0)	(1,0)	
L1D -444>	(0,7)	(1,2)	(2,1)	(445,1)	(17,1)	(310,1)	(105,1)	(-12,1)	(356,1)	(384,2)	(1,0)	(1,0)	(1,0)	(1,0)	(1,0)	(1,0)	
L1D -443>	(-28,1)	(386,1)	(1,2)	(5,3)	(402,1)	(0,1)	(102,1)	(4,1)	(1,0)	(1,0)	(1,0)	(1,0)	(1,0)	(1,0)	(1,0)	(1,0)	
L1D -442>	(386,1)	(53,2)	(409,2)	(336,1)	(0,3)	(1,2)	(-36,1)	(40,1)	(5,1)	(61,1)	(214,1)	(124,1)	(1,0)	(1,0)	(1,0)	(1,0)	
L1D -441>	(29,1)	(2,3)	(60,1)	(-10,1)	(0,1)	(122,1)	(5,1)	(396,1)	(1,0)	(1,0)	(1,0)	(1,0)	(1,0)	(1,0)	(1,0)	(1,0)	
L1D -440>	(0,1)	(440,2)	(1,2)	(61,2)	(-2,1)	(5,1)	(-3,1)	(34,1)	(73,1)	(2,1)	(1,0)	(1,0)	(1,0)	(1,0)	(1,0)	(1,0)	
L1D -439>	(1,3)	(0,3)	(258,1)	(5,6)	(116,3)	(70,1)	(2,2)	(124,1)	(390,1)	(1,0)	(1,0)	(1,0)	(1,0)	(1,0)	(1,0)	(1,0)	
L1D -438>	(53,1)	(79,1)	(118,1)	(142,1)	(61,1)	(390,1)	(0,1)	(438,1)	(4,2)	(91,1)	(392,1)	(1,0)	(1,0)	(1,0)	(1,0)	(1,0)	
L1D -437>	(1,3)	(33,1)	(336,1)	(-20,1)	(10,1)	(2,1)	(278,1)	(390,1)	(102,1)	(5,1)	(1,0)	(1,0)	(1,0)	(1,0)	(1,0)	(1,0)	
L1D -436>	(1,2)	(63,3)	(-1,1)	(0,3)	(108,1)	(390,1)	(433,1)	(54,1)	(118,1)	(107,1)	(392,1)	(1,0)	(1,0)	(1,0)	(1,0)	(1,0)	
L1D -435>	(1,3)	(0,3)	(88,1)	(120,1)	(70,1)	(2,1)	(10,1)	(1,0)	(1,0)	(1,0)	(1,0)	(1,0)	(1,0)	(1,0)	(1,0)	(1,0)	
L1D -434>	(392,1)	(5,4)	(63,1)	(108,1)	(401,1)	(1,4)	(0,3)	(2,1)	(394,1)	(124,1)	(-58,1)	(1,0)	(1,0)	(1,0)	(1,0)	(1,0)	
L1D -433>	(1,1)	(15,1)	(-34,1)	(61,1)	(5,3)	(396,1)	(2,1)	(400,1)	(-10,1)	(0,1)	(1,0)	(1,0)	(1,0)	(1,0)	(1,0)	(1,0)	
L1D -432>	(394,3)	(396,1)	(2,1)	(1,5)	(5,1)	(0,3)	(3,2)	(414,1)	(61,1)	(1,0)	(1,0)	(1,0)	(1,0)	(1,0)	(1,0)	(1,0)	
L1D -431>	(-20,1)	(249,1)	(300,1)	(468,1)	(1,1)	(-10,1)	(100,1)	(4,1)	(1,0)	(1,0)	(1,0)	(1,0)	(1,0)	(1,0)	(1,0)	(1,0)	
L1D -430>	(412,2)	(436,1)	(122,1)	(362,1)	(398,1)	(0,2)	(2,1)	(100,1)	(106,1)	(102,1)	(144,1)	(55,1)	(1,3)	(63,1)	(1,0)	(1,0)	
L1D -429>	(1,2)	(5,5)	(384,1)	(0,4)	(-18,1)	(-28,1)	(2,1)	(400,1)	(-10,1)	(7,1)	(1,0)	(1,0)	(1,0)	(1,0)	(1,0)	(1,0)	
L1D -428>	(1,3)	(398,1)	(0,2)	(100,1)	(75,1)	(400,1)	(146,1)	(61,1)	(410,1)	(1,0)	(1,0)	(1,0)	(1,0)	(1,0)	(1,0)	(1,0)	
L1D -427>	(28,87)	(1,2)	(5,2)	(2,1)	(0,3)	(402,2)	(348,1)	(394,1)	(18,0)	(1,0)	(1,0)	(1,0)	(1,0)	(1,0)	(1,0)	(1,0)	
L1D -426>	(0,5)	(1,41)	(27,34)	(414,10)	(404,1)	(40,14)	(4,6)	(34,2)	(37,1)	(-20,1)	(83,1)	(338,1)	(356,1)	(53,1)	(348,1)	(61,1)	
L1D -425>	(5,3)	(402,1)	(1,4)	(392,1)	(0,3)	(396,1)	(-6,1)	(-10,1)	(2,1)	(-4,1)	(362,1)	(1,0)	(1,0)	(1,0)	(1,0)	(1,0)	
L1D -424>	(0,7)	(406,2)	(-56,1)	(-20,1)	(412,2)	(5,1)	(404,2)	(103,1)	(1,3)	(71,1)	(4,1)	(1,0)	(1,0)	(1,0)	(1,0)	(1,0)	
L1D -423>	(1,8)	(5,9)	(-10,7)	(2,8)	(4,1)	(376,1)	(0,1)	(390,2)	(1,0)	(1,0)	(1,0)	(1,0)	(1,0)	(1,0)	(1,0)	(1,0)	
L1D -422>	(2,43)	(404,1)	(408,1)	(348,1)	(14,1)	(389,1)	(91,1)	(352,1)	(148,1)	(1,2)	(0,3)	(3,1)	(34,1)	(386,1)	(368,1)	(89,1)	
L1D -421>	(1,5)	(4,1)	(-9,1)	(421,1)	(2,2)	(380,1)	(-10,1)	(-1,1)	(5,2)	(0,1)	(384,1)	(1,0)	(1,0)	(1,0)	(1,0)	(1,0)	
L1D -420>	(0,3)	(69,3)	(364,1)	(34,1)	(1,6)	(146,1)	(92,1)	(5,1)	(396,1)	(28,1)	(420,1)	(1,0)	(1,0)	(1,0)	(1,0)	(1,0)	
L1D -419>	(1,3)	(11,3)	(2,2)	(408,1)	(16,2)	(175,1)	(5,3)	(378,3)	(76,1)	(0,3)	(-26,1)	(410,1)	(350,1)	(420,1)	(29,1)	(386,1)	
L1D -418>	(385,1)	(406,3)	(1,3)	(410,2)	(0,12)	(412,1)	(246,1)	(400,1)	(336,1)	(422,1)	(419,3)	(418,3)	(5,1)	(100,1)	(1,0)	(1,0)	
L1D -417>	(418,1)	(-10,83)	(5,0)	(0,0)	(31,0)	(1,0)	(1,0)	(1,0)	(1,0)	(1,0)	(1,0)	(1,0)	(1,0)	(1,0)	(1,0)	(1,0)	
L1D -416>	(1,23)	(0,16)	(37,1)	(61,1)	(414,31)	(412,4)	(417,1)	(107,1)	(5,1)	(404,1)	(410,1)	(416,14)	(415,2)	(-2,1)	(110,1)	(1,0)	
L1D -415>	(1,28)	(0,77)	(414,122)	(-26,1)	(415,40)	(5,4)	(-42,1)	(-80,1)	(-3,1)	(-1,2)	(-2,6)	(-63,0)	(416,2)	(-12,0)	(16,0)	(1,0)	
L1D -414>	(1,2)	(100,0)	(0,45)	(-1,1)	(414,84)	(415,11)	(-18,0)	(-45,0)	(-23,0)	(30,0)	(-2,4)	(206,0)	(164,0)	(413,0)	(87,0)	(121,0)	
L1D -413>	(11,2)	(0,9)	(2,0)	(-20,0)	(9,0)	(32,0)	(22,0)	(108,0)	(-1,9)	(1,2)	(212,0)	(-41,0)	(65,0)	(413,69)	(412,2)	(414,20)	
L1D -412>	(413,38)	(0,63)	(412,80)	(1,7)	(394,1)	(418,1)	(-76,0)	(416,0)	(17,1)	(414,2)	(104,0)	(5,0)	(-2,0)	(1,0)	(1,0)	(1,0)	
L1D -411>	(0,73)	(-7,2)	(5,0)	(411,1)	(412,0)	(1,0)	(1,0)	(1,0)	(1,0)	(1,0)	(1,0)	(1,0)	(1,0)	(1,0)	(1,0)	(1,0)	
L1D -410>	(3,2)	(-2,1)	(411,3)	(409,1)	(410,6)	(0,4)	(24,1)	(53,2)	(414,2)	(92,1)	(1,3)	(402,2)	(424,1)	(377,2)	(-1,1)	(5,1)	
L1D -409>	(0,2)	(1,6)	(2,2)	(-71,1)	(409,3)	(5,4)	(415,1)	(-1,1)	(410,2)	(-20,1)	(414,1)	(403,1)	(1,0)	(1,0)	(1,0)	(1,0)	
L1D -408>	(1,4)	(0,5)	(396,2)	(3,1)	(4,2)	(24,1)	(-1,1)	(409,2)	(408,2)	(216,1)	(390,2)	(412,1)	(394,1)	(420,1)	(-54,1)	(1,0)	
L1D -407>	(0,6)	(387,1)	(1,3)	(5,3)	(407,2)	(408,1)	(62,1)	(-10,1)	(-20,1)	(2,1)	(1,0)	(1,0)	(1,0)	(1,0)	(1,0)	(1,0)	
L1D -406>	(394,5)	(1,7)	(406,3)	(388,1)	(0,7)	(352,1)	(407,1)	(92,1)	(400,2)	(1,0)	(1,0)	(1,0)	(1,0)	(1,0)	(1,0)	(1,0)	
L1D -405>	(1,7)	(358,1)	(10,1)	(0,1)	(384,1)	(56,1)	(364,1)	(2,3)	(405,3)	(406,1)	(385,1)	(368,1)	(5,2)	(398,1)	(1,0)	(1,0)	
L1D -404>	(3,1)	(1,6)	(314,1)	(404,4)	(0,7)	(392,3)	(470,1)	(364,1)	(403,2)	(24,1)	(405,2)	(410,1)	(386,2)	(-28,1)	(398,1)	(108,1)	
L1D -403>	(336,1)	(354,1)	(404,2)	(403,7)	(0,3)	(5,3)	(1,3)	(402,1)	(366,1)	(61,1)	(1,0)	(1,0)	(1,0)	(1,0)	(1,0)	(1,0)	
L1D -402>	(408,1)	(3,2)	(403,10)	(390,6)	(402,8)	(0,6)	(404,1)	(-2,1)	(126,1)	(-12,1)	(1,0)	(1,0)	(1,0)	(1,0)	(1,0)	(1,0)	
L1D -401>	(1,5)	(395,3)	(402,9)	(5,3)	(-10,1)	(382,2)	(401,6)	(0,2)	(128,1)	(407,1)	(1,0)	(1,0)	(1,0)	(1,0)	(1,0)	(1,0)	
L1D -400>	(1,2)	(3,1)	(208,1)	(58,1)	(392,1)	(18,1)	(400,7)	(0,7)	(401,7)	(5,3)	(382,1)	(4,1)	(2,1)	(388,1)	(1,0)	(1,0)	
L1D -399>	(0,4)	(399,6)	(330,1)	(-14,1)	(126,1)	(1,5)	(5,2)	(400,1)	(404,1)	(1,0)	(1,0)	(1,0)	(1,0)	(1,0)	(1,0)	(1,0)	
L1D -398>	(1,7)	(0,6)	(2,1)	(398,5)	(386,2)	(-54,1)	(399,3)	(404,2)	(370,1)	(395,4)	(414,1)	(408,1)	(6,1)	(1,0)	(1,0)	(1,0)	
L1D -397>	(397,5)	(5,4)	(2,1)	(0,1)	(8,1)	(398,1)	(282,1)	(1,0)	(1,0)	(1,0)	(1,0)	(1,0)	(1,0)	(1,0)	(1,0)	(1,0)	
L1D -396>	(1,6)	(5,1)	(396,6)	(0,4)	(386,1)	(-2,1)	(397,1)	(1,0)	(1,0)	(1,0)	(1,0)	(1,0)	(1,0)	(1,0)	(1,0)	(1,0)	
L1D -395>	(2,3)	(0,3)	(395,6)	(412,1)	(4,1)	(1,1)	(385,1)	(1,0)	(1,0)	(1,0)	(1,0)	(1,0)	(1,0)	(1,0)	(1,0)	(1,0)	
L1D -394>	(1,6)	(394,2)	(5,1)	(0,7)	(-1,1)	(458,1)	(395,7)	(76,1)	(43,2)	(37,1)	(388,1)	(52,1)	(382,3)	(376,1)	(1,0)	(1,0)	
L1D -393>	(0,6)	(393,3)	(1,1)	(5,1)	(2,1)	(394,5)	(-20,1)	(56,1)	(146,1)	(-7,1)	(1,0)	(1,0)	(1,0)	(1,0)	(1,0)	(1,0)	
L1D -392>	(348,1)	(1,4)	(394,1)	(384,1)	(370,1)	(393,5)	(-30,1)	(0,1)	(5,1)	(-94,1)	(392,1)	(410,1)	(1,0)	(1,0)	(1,0)	(1,0)	
L1D -391>	(146,1)	(1,7)	(0,3)	(391,3)	(312,1)	(-10,1)	(392,2)	(118,1)	(2,1)	(-14,1)	(414,1)	(5,1)	(1,0)	(1,0)	(1,0)	(1,0)	
L1D -390>	(0,4)	(5,6)	(390,5)	(1,5)	(391,3)	(3,1)	(392,1)	(-108,1)	(74,1)	(2,1)	(16,1)	(-2,1)	(1,0)	(1,0)	(1,0)	(1,0)	
L1D -389>	(0,2)	(1,2)	(-9,1)	(390,1)	(14,1)	(306,2)	(389,6)	(24,1)	(396,1)	(2,1)	(437,1)	(395,1)	(388,1)	(385,1)	(1,0)	(1,0)	
L1D -388>	(0,4)	(388,4)	(376,1)	(-44,1)	(374,1)	(362,1)	(1,1)	(184,1)	(-2,1)	(120,1)	(136,1)	(1,0)	(1,0)	(1,0)	(1,0)	(1,0)	
L1D -387>	(0,6)	(1,2)	(2,3)	(406,1)	(248,1)	(5,2)	(8,1)	(114,19)	(388,1)	(387,4)	(132,1)	(318,1)	(-7,1)	(276,1)	(-30,1)	(1,0)	
L1D -386>	(386,114)	(-31,27)	(6,1)	(0,2)	(3,0)	(1,0)	(1,0)	(1,0)	(1,0)	(1,0)	(1,0)	(1,0)	(1,0)	(1,0)	(1,0)	(1,0)	
L1D -385>	(1,3)	(385,8)	(386,3)	(0,6)	(73,1)	(2,1)	(390,1)	(1,0)	(1,0)	(1,0)	(1,0)	(1,0)	(1,0)	(1,0)	(1,0)	(1,0)	
L1D -384>	(1,6)	(372,5)	(0,4)	(384,3)	(-48,1)	(351,1)	(356,1)	(385,2)	(258,1)	(1,0)	(1,0)	(1,0)	(1,0)	(1,0)	(1,0)	(1,0)	
L1D -383>	(384,3)	(155,1)	(128,2)	(1,2)	(0,1)	(-1,2)	(397,1)	(2,1)	(383,1)	(414,1)	(110,1)	(1,0)	(1,0)	(1,0)	(1,0)	(1,0)	
L1D -382>	(382,3)	(-28,2)	(379,1)	(106,1)	(383,2)	(73,1)	(1,3)	(90,1)	(0,2)	(414,1)	(26,1)	(1,0)	(1,0)	(1,0)	(1,0)	(1,0)	
L1D -381>	(114,107)	(152,7)	(0,5)	(290,1)	(2,5)	(126,1)	(381,6)	(15,1)	(58,1)	(7,1)	(42,1)	(3,1)	(420,1)	(1,3)	(5,1)	(82,1)	
L1D -380>	(381,3)	(1,4)	(6,2)	(24,1)	(5,2)	(0,4)	(414,1)	(3,1)	(-24,1)	(-4,1)	(28,1)	(472,1)	(1,0)	(1,0)	(1,0)	(1,0)	
L1D -379>	(378,1)	(379,3)	(3,1)	(5,1)	(410,1)	(2,1)	(0,5)	(30,1)	(-1,1)	(10,1)	(1,0)	(1,0)	(1,0)	(1,0)	(1,0)	(1,0)	
L1D -378>	(79,2)	(379,1)	(1,5)	(412,1)	(0,9)	(266,1)	(-60,1)	(378,3)	(170,1)	(400,1)	(1,0)	(1,0)	(1,0)	(1,0)	(1,0)	(1,0)	
L1D -377>	(1,4)	(378,2)	(377,2)	(126,4)	(376,1)	(10,1)	(412,1)	(0,2)	(110,1)	(6,1)	(2,2)	(1,0)	(1,0)	(1,0)	(1,0)	(1,0)	
L1D -376>	(5,1)	(126,1)	(1,2)	(4,1)	(74,1)	(3,4)	(102,1)	(-1,1)	(376,1)	(377,1)	(-6,1)	(124,1)	(1,0)	(1,0)	(1,0)	(1,0)	
L1D -375>	(70,1)	(0,3)	(1,2)	(374,1)	(402,1)	(-7,1)	(124,2)	(-1,1)	(375,1)	(-2,2)	(34,1)	(5,2)	(6,1)	(1,0)	(1,0)	(1,0)	
L1D -374>	(85,1)	(2,1)	(374,4)	(0,7)	(1,1)	(32,1)	(-116,1)	(6,2)	(264,1)	(107,2)	(76,1)	(352,1)	(148,1)	(5,1)	(18,1)	(98,1)	
L1D -373>	(0,3)	(74,3)	(2,2)	(58,1)	(1,1)	(263,1)	(278,1)	(5,2)	(454,1)	(373,1)	(3,1)	(374,1)	(340,1)	(274,1)	(400,1)	(370,1)	
L1D -372>	(107,1)	(372,3)	(370,1)	(373,2)	(1,2)	(2,3)	(5,3)	(124,1)	(0,5)	(126,1)	(142,1)	(6,1)	(290,1)	(53,1)	(1,0)	(1,0)	
L1D -371>	(1,5)	(72,10)	(-2,1)	(372,1)	(371,2)	(56,1)	(8,1)	(276,1)	(5,1)	(124,1)	(272,1)	(1,0)	(1,0)	(1,0)	(1,0)	(1,0)	
L1D -370>	(368,1)	(-128,1)	(370,4)	(358,1)	(0,4)	(24,1)	(180,1)	(344,2)	(2,1)	(1,3)	(371,1)	(260,1)	(356,1)	(422,1)	(-137,2)	(294,1)	
L1D -369>	(380,1)	(4,4)	(0,2)	(365,1)	(3,2)	(70,3)	(-137,1)	(369,4)	(1,3)	(246,1)	(224,1)	(2,2)	(400,1)	(-7,1)	(370,1)	(1,0)	
L1D -368>	(0,3)	(369,7)	(5,1)	(368,1)	(356,1)	(30,1)	(1,2)	(2,1)	(1,0)	(1,0)	(1,0)	(1,0)	(1,0)	(1,0)	(1,0)	(1,0)	
L1D -367>	(2,3)	(1,3)	(-38,1)	(367,1)	(92,1)	(286,1)	(414,1)	(368,3)	(412,1)	(3,1)	(69,1)	(-68,1)	(0,1)	(402,1)	(1,0)	(1,0)	
L1D -366>	(-72,1)	(366,3)	(1,1)	(4,1)	(18,1)	(0,4)	(365,1)	(-1,1)	(5,1)	(48,1)	(1,0)	(1,0)	(1,0)	(1,0)	(1,0)	(1,0)	
L1D -365>	(-1,1)	(60,33)	(5,2)	(1,2)	(0,5)	(270,1)	(2,1)	(66,1)	(108,1)	(365,4)	(106,1)	(80,1)	(414,1)	(1,0)	(1,0)	(1,0)	
L1D -364>	(1,3)	(138,1)	(0,8)	(376,1)	(78,1)	(364,4)	(365,1)	(194,1)	(3,1)	(416,1)	(360,1)	(1,0)	(1,0)	(1,0)	(1,0)	(1,0)	
L1D -363>	(1,6)	(0,3)	(416,1)	(18,1)	(363,4)	(88,1)	(352,1)	(48,1)	(-2,1)	(4,1)	(56,1)	(72,1)	(1,0)	(1,0)	(1,0)	(1,0)	
L1D -362>	(0,5)	(91,1)	(1,5)	(52,1)	(120,1)	(2,1)	(362,4)	(363,2)	(5,2)	(3,1)	(78,2)	(71,1)	(386,1)	(86,1)	(-28,1)	(-2,1)	
L1D -361>	(1,6)	(-6,1)	(362,3)	(361,2)	(0,1)	(2,2)	(24,2)	(62,2)	(3,1)	(4,1)	(82,2)	(-58,1)	(108,1)	(-1,1)	(6,1)	(1,0)	
L1D -360>	(3,1)	(1,3)	(121,2)	(360,3)	(146,2)	(0,11)	(2,2)	(84,1)	(-2,1)	(414,1)	(400,1)	(-1,1)	(5,1)	(363,1)	(92,1)	(1,0)	
L1D -359>	(60,78)	(0,2)	(-14,0)	(1,1)	(359,2)	(1,0)	(1,0)	(1,0)	(1,0)	(1,0)	(1,0)	(1,0)	(1,0)	(1,0)	(1,0)	(1,0)	
L1D -358>	(82,3)	(97,1)	(6,2)	(60,1)	(4,3)	(359,2)	(-128,1)	(0,7)	(352,1)	(355,1)	(1,2)	(272,1)	(-137,1)	(91,1)	(120,2)	(5,1)	
L1D -357>	(-30,1)	(357,3)	(358,2)	(0,3)	(246,1)	(5,4)	(3,1)	(-2,2)	(356,1)	(206,1)	(1,2)	(6,2)	(414,1)	(18,1)	(76,1)	(-20,1)	
L1D -356>	(356,4)	(91,1)	(-6,1)	(1,3)	(357,3)	(-2,1)	(0,5)	(1,0)	(1,0)	(1,0)	(1,0)	(1,0)	(1,0)	(1,0)	(1,0)	(1,0)	
L1D -355>	(2,2)	(3,2)	(56,3)	(-124,1)	(0,6)	(355,3)	(1,1)	(4,1)	(-1,1)	(76,1)	(6,2)	(1,0)	(1,0)	(1,0)	(1,0)	(1,0)	
L1D -354>	(0,8)	(1,5)	(354,3)	(240,1)	(3,1)	(292,1)	(4,1)	(-30,1)	(1,0)	(1,0)	(1,0)	(1,0)	(1,0)	(1,0)	(1,0)	(1,0)	
L1D -353>	(1,3)	(0,3)	(6,4)	(3,1)	(354,2)	(353,1)	(2,2)	(414,1)	(119,1)	(-2,1)	(198,1)	(-1,1)	(-10,1)	(1,0)	(1,0)	(1,0)	
L1D -352>	(-1,94)	(1,2)	(0,1)	(3,1)	(358,1)	(352,1)	(317,0)	(346,0)	(397,0)	(353,1)	(340,0)	(-10,0)	(6,1)	(1,0)	(1,0)	(1,0)	
L1D -351>	(69,2)	(1,4)	(5,1)	(3,3)	(24,1)	(99,1)	(2,2)	(351,4)	(0,4)	(414,1)	(4,1)	(8,1)	(-1,1)	(77,1)	(1,0)	(1,0)	
L1D -350>	(81,1)	(128,1)	(0,5)	(1,1)	(136,1)	(350,2)	(262,1)	(414,1)	(1,0)	(1,0)	(1,0)	(1,0)	(1,0)	(1,0)	(1,0)	(1,0)	
L1D -349>	(1,6)	(84,1)	(-7,1)	(262,1)	(64,2)	(6,1)	(-2,1)	(376,1)	(349,3)	(56,1)	(-70,1)	(3,2)	(4,1)	(350,1)	(348,1)	(5,1)	
L1D -348>	(1,9)	(126,1)	(348,2)	(349,2)	(-1,1)	(0,5)	(134,1)	(4,1)	(150,1)	(352,1)	(5,1)	(402,1)	(1,0)	(1,0)	(1,0)	(1,0)	
L1D -347>	(3,3)	(18,1)	(109,2)	(64,2)	(347,2)	(348,1)	(0,2)	(344,1)	(1,3)	(-2,1)	(1,0)	(1,0)	(1,0)	(1,0)	(1,0)	(1,0)	
L1D -346>	(0,8)	(341,29)	(-1,0)	(4,80)	(346,0)	(390,0)	(349,0)	(1,0)	(1,0)	(1,0)	(1,0)	(1,0)	(1,0)	(1,0)	(1,0)	(1,0)	
L1D -345>	(1,2)	(0,5)	(346,1)	(242,1)	(24,1)	(70,1)	(345,2)	(-1,1)	(2,1)	(-45,1)	(-60,1)	(6,2)	(380,1)	(1,0)	(1,0)	(1,0)	
L1D -344>	(0,4)	(130,1)	(-1,1)	(288,1)	(208,1)	(345,2)	(-82,1)	(1,2)	(390,1)	(344,1)	(1,0)	(1,0)	(1,0)	(1,0)	(1,0)	(1,0)	
L1D -343>	(1,2)	(338,113)	(345,1)	(-3,20)	(-1,1)	(343,1)	(0,1)	(4,0)	(1,0)	(1,0)	(1,0)	(1,0)	(1,0)	(1,0)	(1,0)	(1,0)	
L1D -342>	(0,5)	(1,1)	(-4,108)	(4,2)	(342,1)	(2,1)	(337,7)	(346,0)	(83,0)	(1,0)	(1,0)	(1,0)	(1,0)	(1,0)	(1,0)	(1,0)	
L1D -341>	(0,81)	(5,36)	(341,12)	(4,117)	(1,1)	(-1,1)	(342,0)	(346,14)	(6,0)	(1,0)	(1,0)	(1,0)	(1,0)	(1,0)	(1,0)	(1,0)	
L1D -340>	(345,1)	(3,64)	(340,3)	(4,0)	(-18,0)	(0,1)	(6,0)	(1,0)	(-1,0)	(1,0)	(1,0)	(1,0)	(1,0)	(1,0)	(1,0)	(1,0)	
L1D -339>	(1,4)	(3,4)	(0,4)	(-3,7)	(-20,1)	(56,1)	(-1,2)	(18,1)	(99,1)	(340,1)	(114,1)	(400,1)	(352,1)	(2,1)	(5,2)	(120,1)	
L1D -338>	(117,2)	(1,34)	(343,33)	(-3,57)	(0,7)	(114,4)	(184,1)	(268,1)	(124,1)	(339,5)	(338,3)	(410,1)	(341,1)	(1,0)	(1,0)	(1,0)	
L1D -337>	(6,2)	(114,108)	(-4,50)	(117,68)	(-5,1)	(1,0)	(337,0)	(130,0)	(4,0)	(146,0)	(104,3)	(338,0)	(167,1)	(24,0)	(-1,0)	(1,0)	
L1D -336>	(2,1)	(1,2)	(0,5)	(77,1)	(5,1)	(-1,2)	(4,2)	(341,4)	(38,1)	(336,1)	(337,3)	(19,1)	(428,1)	(292,1)	(1,0)	(1,0)	
L1D -335>	(1,3)	(5,3)	(3,4)	(-24,1)	(24,1)	(18,1)	(2,1)	(-1,4)	(4,1)	(0,1)	(258,1)	(248,1)	(6,2)	(335,1)	(1,0)	(1,0)	
L1D -334>	(4,5)	(1,4)	(174,1)	(335,2)	(-1,2)	(0,5)	(-5,1)	(132,1)	(-18,1)	(414,1)	(246,1)	(17,1)	(1,0)	(1,0)	(1,0)	(1,0)	
L1D -333>	(1,4)	(2,1)	(6,5)	(333,1)	(-1,1)	(3,4)	(186,1)	(0,4)	(114,1)	(334,4)	(146,1)	(-64,1)	(234,1)	(98,1)	(91,2)	(1,0)	
L1D -332>	(1,3)	(335,1)	(4,1)	(0,7)	(332,4)	(414,1)	(236,1)	(1,0)	(1,0)	(1,0)	(1,0)	(1,0)	(1,0)	(1,0)	(1,0)	(1,0)	
L1D -331>	(1,4)	(3,4)	(14,1)	(2,2)	(0,5)	(18,1)	(6,1)	(4,1)	(-1,1)	(144,1)	(-9,1)	(1,0)	(1,0)	(1,0)	(1,0)	(1,0)	
L1D -330>	(0,9)	(61,2)	(108,2)	(423,2)	(333,2)	(4,3)	(368,1)	(-1,2)	(5,1)	(86,1)	(77,1)	(222,1)	(116,1)	(1,0)	(1,0)	(1,0)	
L1D -329>	(0,10)	(-20,1)	(4,2)	(3,2)	(64,1)	(342,1)	(-126,1)	(24,1)	(5,1)	(54,1)	(1,2)	(-2,1)	(6,1)	(1,0)	(1,0)	(1,0)	
L1D -328>	(22,72)	(114,0)	(15,87)	(-102,0)	(328,0)	(0,0)	(1,0)	(1,0)	(1,0)	(1,0)	(1,0)	(1,0)	(1,0)	(1,0)	(1,0)	(1,0)	
L1D -327>	(0,11)	(24,1)	(-9,1)	(328,1)	(4,1)	(156,1)	(327,1)	(331,1)	(1,2)	(272,1)	(56,1)	(89,1)	(1,0)	(1,0)	(1,0)	(1,0)	
L1D -326>	(1,2)	(0,13)	(358,2)	(414,1)	(75,1)	(112,1)	(-100,1)	(1,0)	(1,0)	(1,0)	(1,0)	(1,0)	(1,0)	(1,0)	(1,0)	(1,0)	
L1D -325>	(1,3)	(6,9)	(98,1)	(-2,1)	(-1,1)	(0,12)	(-6,1)	(-20,1)	(3,1)	(116,1)	(1,0)	(1,0)	(1,0)	(1,0)	(1,0)	(1,0)	
L1D -324>	(1,3)	(0,8)	(329,1)	(322,1)	(54,1)	(-13,1)	(306,1)	(324,1)	(330,1)	(4,1)	(68,1)	(10,1)	(6,1)	(1,0)	(1,0)	(1,0)	
L1D -323>	(0,9)	(1,3)	(358,1)	(3,5)	(356,1)	(146,2)	(32,1)	(100,1)	(-38,1)	(1,0)	(1,0)	(1,0)	(1,0)	(1,0)	(1,0)	(1,0)	
L1D -322>	(419,4)	(0,16)	(268,1)	(1,2)	(118,1)	(322,5)	(325,4)	(99,1)	(289,1)	(-3,1)	(-22,1)	(311,1)	(-1,1)	(1,0)	(1,0)	(1,0)	
L1D -321>	(1,4)	(98,1)	(336,1)	(0,10)	(18,1)	(321,1)	(24,1)	(146,2)	(3,1)	(-38,1)	(6,3)	(2,1)	(-20,1)	(-5,1)	(-4,1)	(26,1)	
L1D -320>	(61,1)	(0,19)	(4,3)	(370,1)	(1,5)	(20,5)	(19,2)	(323,1)	(364,1)	(320,3)	(-1,1)	(414,2)	(176,1)	(-9,1)	(394,1)	(6,1)	
L1D -319>	(0,9)	(1,5)	(3,3)	(24,2)	(-2,1)	(-60,1)	(56,2)	(76,1)	(-144,1)	(1,0)	(1,0)	(1,0)	(1,0)	(1,0)	(1,0)	(1,0)	
L1D -318>	(2,1)	(1,2)	(4,4)	(358,1)	(146,1)	(-65,1)	(396,1)	(376,1)	(-122,1)	(162,1)	(0,5)	(-6,1)	(321,1)	(1,0)	(1,0)	(1,0)	
L1D -317>	(6,3)	(4,2)	(368,1)	(0,10)	(292,1)	(1,3)	(146,2)	(317,2)	(414,1)	(5,1)	(-74,1)	(1,0)	(1,0)	(1,0)	(1,0)	(1,0)	
L1D -316>	(0,15)	(1,4)	(296,1)	(321,1)	(291,1)	(6,2)	(340,1)	(319,1)	(4,1)	(19,1)	(3,1)	(348,1)	(1,0)	(1,0)	(1,0)	(1,0)	
L1D -315>	(-28,1)	(1,4)	(-1,3)	(-98,1)	(0,16)	(3,4)	(-24,1)	(4,2)	(26,1)	(6,2)	(-20,1)	(222,1)	(394,1)	(1,0)	(1,0)	(1,0)	
L1D -314>	(0,6)	(53,1)	(100,1)	(4,1)	(1,2)	(317,4)	(-112,1)	(54,1)	(-36,1)	(6,1)	(414,1)	(1,0)	(1,0)	(1,0)	(1,0)	(1,0)	
L1D -313>	(313,62)	(26,5)	(0,10)	(1,2)	(56,2)	(24,4)	(2,1)	(6,3)	(310,1)	(-12,1)	(-4,1)	(20,1)	(3,1)	(1,0)	(1,0)	(1,0)	
L1D -312>	(317,1)	(4,4)	(226,1)	(0,10)	(414,1)	(315,2)	(98,2)	(313,1)	(280,1)	(188,1)	(114,1)	(-114,1)	(92,1)	(1,1)	(-2,1)	(380,1)	
L1D -311>	(130,1)	(5,1)	(0,7)	(1,3)	(24,2)	(6,1)	(311,3)	(312,1)	(56,1)	(1,0)	(1,0)	(1,0)	(1,0)	(1,0)	(1,0)	(1,0)	
L1D -310>	(-26,1)	(1,3)	(0,9)	(18,1)	(6,1)	(24,1)	(414,1)	(407,2)	(4,2)	(120,1)	(382,1)	(313,1)	(146,1)	(1,0)	(1,0)	(1,0)	
L1D -309>	(6,12)	(5,1)	(1,3)	(0,16)	(307,1)	(206,1)	(309,2)	(-118,1)	(90,1)	(-2,1)	(4,1)	(56,2)	(10,1)	(1,0)	(1,0)	(1,0)	
L1D -308>	(1,2)	(0,21)	(146,2)	(313,1)	(20,1)	(-9,1)	(4,1)	(6,3)	(308,1)	(1,0)	(1,0)	(1,0)	(1,0)	(1,0)	(1,0)	(1,0)	
L1D -307>	(0,8)	(1,2)	(4,4)	(6,6)	(10,1)	(311,1)	(26,1)	(1,0)	(1,0)	(1,0)	(1,0)	(1,0)	(1,0)	(1,0)	(1,0)	(1,0)	
L1D -306>	(0,123)	(309,0)	(306,23)	(4,0)	(1,0)	(1,0)	(1,0)	(1,0)	(1,0)	(1,0)	(1,0)	(1,0)	(1,0)	(1,0)	(1,0)	(1,0)	
L1D -305>	(12,1)	(6,8)	(0,4)	(321,11)	(1,4)	(305,2)	(24,3)	(43,1)	(392,1)	(26,1)	(35,1)	(146,1)	(1,0)	(1,0)	(1,0)	(1,0)	
L1D -304>	(1,4)	(0,7)	(20,3)	(42,1)	(-4,1)	(3,3)	(319,1)	(4,2)	(307,3)	(452,1)	(12,1)	(146,1)	(6,1)	(24,1)	(19,1)	(1,0)	
L1D -303>	(3,3)	(0,5)	(82,1)	(24,1)	(6,1)	(-1,2)	(2,2)	(-28,1)	(4,2)	(26,1)	(-2,3)	(1,1)	(-20,1)	(303,1)	(1,0)	(1,0)	
L1D -302>	(-18,1)	(305,1)	(0,13)	(34,1)	(19,4)	(4,4)	(-2,1)	(292,1)	(1,3)	(18,1)	(14,1)	(-80,1)	(300,2)	(6,1)	(28,1)	(1,0)	
L1D -301>	(5,3)	(6,9)	(0,8)	(1,2)	(32,1)	(78,1)	(-118,1)	(-124,1)	(301,2)	(298,1)	(1,0)	(1,0)	(1,0)	(1,0)	(1,0)	(1,0)	
L1D -300>	(1,2)	(0,9)	(-2,1)	(305,6)	(5,2)	(2,1)	(4,1)	(301,1)	(6,4)	(82,1)	(-1,1)	(1,0)	(1,0)	(1,0)	(1,0)	(1,0)	
L1D -299>	(56,1)	(321,71)	(2,7)	(4,4)	(0,9)	(14,4)	(488,1)	(-1,2)	(26,1)	(6,2)	(-20,2)	(50,1)	(301,1)	(74,1)	(323,1)	(288,1)	
L1D -298>	(1,5)	(62,1)	(301,4)	(4,1)	(0,8)	(300,1)	(296,3)	(6,1)	(3,1)	(-9,1)	(376,1)	(26,1)	(274,1)	(-74,1)	(19,2)	(-46,1)	
L1D -297>	(6,10)	(0,16)	(26,7)	(1,1)	(24,11)	(19,1)	(299,2)	(297,1)	(4,1)	(60,1)	(-4,1)	(301,1)	(-20,1)	(1,0)	(1,0)	(1,0)	
L1D -296>	(0,20)	(2,2)	(34,2)	(301,1)	(-98,1)	(5,1)	(-9,2)	(299,1)	(19,6)	(296,1)	(4,2)	(1,2)	(338,1)	(20,3)	(-4,1)	(-187,1)	
L1D -295>	(0,11)	(14,2)	(6,12)	(1,6)	(56,1)	(12,1)	(19,3)	(299,1)	(-20,5)	(362,1)	(297,1)	(7,1)	(226,1)	(1,0)	(1,0)	(1,0)	
L1D -294>	(0,7)	(4,4)	(1,4)	(7,1)	(-1,1)	(299,1)	(20,4)	(292,1)	(14,6)	(18,1)	(212,1)	(19,4)	(2,2)	(58,1)	(6,1)	(5,1)	
L1D -293>	(1,6)	(6,11)	(297,2)	(17,2)	(0,4)	(288,1)	(26,2)	(5,1)	(293,3)	(24,4)	(315,1)	(19,1)	(254,1)	(295,1)	(1,0)	(1,0)	
L1D -292>	(-1,60)	(0,9)	(2,1)	(297,2)	(6,7)	(1,3)	(19,2)	(414,1)	(-38,1)	(-12,1)	(288,1)	(290,1)	(318,1)	(295,1)	(5,1)	(1,0)	
L1D -291>	(5,2)	(291,5)	(0,10)	(1,5)	(24,1)	(2,3)	(334,1)	(6,1)	(20,1)	(295,3)	(4,2)	(-102,1)	(293,1)	(-20,2)	(1,0)	(1,0)	
L1D -290>	(268,1)	(0,13)	(20,3)	(368,1)	(288,2)	(414,2)	(293,4)	(1,5)	(271,1)	(291,2)	(62,1)	(2,2)	(286,1)	(19,3)	(-2,1)	(436,1)	
L1D -289>	(0,14)	(24,2)	(6,10)	(1,5)	(291,2)	(-6,1)	(68,1)	(19,1)	(-20,5)	(289,6)	(26,2)	(2,2)	(4,2)	(5,2)	(-4,1)	(80,1)	
L1D -288>	(26,3)	(2,3)	(0,18)	(291,4)	(20,6)	(-12,2)	(362,1)	(308,1)	(289,1)	(384,1)	(1,2)	(422,1)	(18,1)	(454,1)	(4,2)	(1,0)	
L1D -287>	(289,2)	(287,2)	(291,3)	(250,1)	(24,3)	(327,1)	(6,3)	(438,1)	(0,9)	(-2,1)	(26,5)	(356,1)	(266,1)	(7,1)	(46,1)	(41,1)	
L1D -286>	(146,1)	(7,1)	(0,14)	(20,7)	(1,7)	(26,2)	(196,1)	(80,1)	(2,3)	(288,1)	(-20,2)	(19,2)	(289,1)	(350,1)	(274,1)	(284,1)	
L1D -285>	(6,14)	(289,1)	(24,10)	(88,1)	(279,1)	(285,3)	(287,1)	(-20,3)	(3,3)	(-5,2)	(152,1)	(37,3)	(0,5)	(1,2)	(13,1)	(19,2)	
L1D -284>	(19,9)	(20,4)	(290,2)	(285,2)	(289,4)	(0,10)	(1,4)	(282,2)	(-46,1)	(108,1)	(-106,1)	(286,1)	(2,1)	(6,1)	(339,1)	(414,1)	
L1D -283>	(2,2)	(0,11)	(26,2)	(12,2)	(4,2)	(18,1)	(1,2)	(285,3)	(258,1)	(-20,3)	(280,1)	(268,1)	(6,1)	(19,2)	(272,1)	(1,0)	
L1D -282>	(19,20)	(2,4)	(-12,1)	(4,2)	(0,11)	(-50,1)	(20,9)	(-6,1)	(291,1)	(280,2)	(6,1)	(348,1)	(-142,1)	(279,1)	(270,1)	(285,2)	
L1D -281>	(0,10)	(24,5)	(29,1)	(281,3)	(1,1)	(6,10)	(42,2)	(282,2)	(276,1)	(-1,1)	(-36,1)	(-14,1)	(-20,2)	(20,1)	(26,2)	(-4,1)	
L1D -280>	(0,11)	(283,2)	(4,4)	(1,2)	(230,2)	(281,1)	(-1,1)	(278,6)	(20,3)	(280,1)	(272,1)	(-20,2)	(6,3)	(299,1)	(-168,1)	(254,1)	
L1D -279>	(6,2)	(-98,1)	(8,19)	(0,14)	(-20,4)	(1,5)	(16,3)	(24,7)	(26,8)	(-1,1)	(19,4)	(2,1)	(276,1)	(281,2)	(7,1)	(5,1)	
L1D -278>	(19,18)	(281,4)	(12,2)	(283,4)	(301,1)	(0,14)	(20,4)	(292,1)	(-20,2)	(6,2)	(1,3)	(279,1)	(294,1)	(264,1)	(297,1)	(242,1)	
L1D -277>	(0,105)	(-20,1)	(277,11)	(273,45)	(3,0)	(80,0)	(24,0)	(6,1)	(1,1)	(1,0)	(1,0)	(1,0)	(1,0)	(1,0)	(1,0)	(1,0)	
L1D -276>	(49,2)	(19,21)	(28,4)	(0,13)	(2,11)	(-6,2)	(4,1)	(6,3)	(281,6)	(276,5)	(274,2)	(8,6)	(20,17)	(-1,1)	(1,5)	(282,1)	
L1D -275>	(8,6)	(19,2)	(2,2)	(6,5)	(26,7)	(1,3)	(-20,1)	(275,12)	(5,1)	(0,12)	(277,1)	(-5,1)	(279,3)	(25,3)	(40,1)	(18,1)	
L1D -274>	(279,2)	(8,12)	(2,9)	(-18,1)	(276,1)	(1,8)	(12,1)	(4,1)	(54,1)	(277,6)	(0,7)	(272,1)	(14,1)	(20,3)	(24,1)	(19,2)	
L1D -273>	(277,118)	(-4,0)	(0,1)	(1,1)	(412,5)	(420,5)	(273,7)	(19,0)	(24,1)	(419,1)	(6,3)	(3,0)	(263,1)	(276,0)	(28,0)	(-20,2)	
L1D -272>	(275,4)	(270,7)	(0,14)	(-20,3)	(1,5)	(247,3)	(277,1)	(-122,1)	(-98,1)	(268,1)	(20,4)	(24,1)	(6,1)	(274,1)	(4,1)	(-6,1)	
L1D -271>	(0,10)	(1,5)	(7,1)	(26,2)	(269,1)	(19,1)	(24,5)	(6,5)	(273,2)	(271,4)	(268,1)	(4,2)	(275,1)	(-20,1)	(2,1)	(1,0)	
L1D -270>	(0,7)	(1,1)	(273,4)	(20,15)	(272,1)	(-26,2)	(-134,1)	(19,5)	(60,1)	(254,1)	(268,2)	(14,1)	(78,1)	(4,2)	(270,1)	(-6,1)	
L1D -269>	(3,78)	(26,4)	(-20,1)	(269,1)	(22,0)	(1,1)	(6,2)	(268,3)	(13,7)	(0,4)	(24,1)	(-14,0)	(4,1)	(284,0)	(273,0)	(271,0)	
L1D -268>	(1,1)	(266,4)	(19,40)	(5,6)	(14,1)	(20,22)	(2,18)	(0,16)	(-12,5)	(273,4)	(-20,3)	(268,3)	(38,1)	(98,1)	(284,1)	(269,2)	
L1D -267>	(6,2)	(420,76)	(2,3)	(412,70)	(419,5)	(1,4)	(411,10)	(263,31)	(-20,4)	(19,1)	(24,8)	(29,3)	(269,2)	(0,11)	(271,2)	(18,1)	
L1D -266>	(-14,2)	(19,43)	(0,8)	(1,3)	(20,1)	(-20,8)	(227,2)	(264,2)	(18,3)	(287,1)	(4,9)	(2,2)	(266,3)	(269,5)	(259,1)	(277,1)	
L1D -265>	(6,6)	(19,4)	(24,11)	(1,7)	(0,8)	(2,1)	(26,2)	(-20,3)	(267,2)	(265,6)	(216,1)	(269,1)	(264,1)	(240,2)	(350,1)	(-4,1)	
L1D -264>	(20,13)	(269,1)	(2,1)	(-26,1)	(4,11)	(1,8)	(267,3)	(284,1)	(0,9)	(262,2)	(19,2)	(-12,2)	(146,1)	(14,2)	(12,5)	(-130,1)	
L1D -263>	(6,2)	(1,7)	(24,28)	(263,9)	(274,1)	(0,35)	(19,2)	(267,5)	(4,1)	(-42,1)	(26,2)	(-20,2)	(265,3)	(3,2)	(277,2)	(262,1)	
L1D -262>	(4,4)	(0,10)	(1,5)	(260,2)	(2,4)	(19,5)	(254,1)	(20,18)	(263,1)	(267,7)	(265,3)	(170,1)	(146,2)	(262,1)	(-20,2)	(-1,1)	
L1D -261>	(19,7)	(26,35)	(1,1)	(36,3)	(240,1)	(6,7)	(260,3)	(10,6)	(261,8)	(24,15)	(7,1)	(3,4)	(0,9)	(-20,5)	(263,6)	(284,1)	
L1D -260>	(2,7)	(1,7)	(261,3)	(0,11)	(20,17)	(265,6)	(6,3)	(378,1)	(272,1)	(248,2)	(60,1)	(24,1)	(-20,2)	(260,2)	(-4,1)	(296,1)	
L1D -259>	(1,6)	(-20,1)	(259,2)	(2,1)	(258,2)	(261,2)	(3,4)	(220,2)	(0,10)	(24,5)	(7,1)	(10,1)	(22,1)	(128,1)	(19,1)	(6,1)	
L1D -258>	(261,1)	(62,94)	(1,19)	(270,0)	(394,0)	(-12,0)	(2,2)	(20,1)	(0,4)	(-1,0)	(-7,0)	(186,0)	(-14,0)	(1,0)	(1,0)	(1,0)	
L1D -257>	(0,65)	(97,0)	(60,116)	(98,103)	(22,1)	(24,1)	(99,4)	(-1,0)	(-6,0)	(61,11)	(257,2)	(247,0)	(259,0)	(-20,0)	(1,0)	(1,0)	
L1D -256>	(-26,2)	(1,86)	(7,2)	(0,4)	(255,8)	(251,68)	(285,1)	(2,1)	(20,15)	(257,3)	(6,1)	(4,1)	(19,1)	(-20,1)	(16,1)	(261,1)	
L1D -255>	(0,72)	(84,92)	(250,10)	(29,0)	(26,2)	(255,0)	(24,1)	(6,0)	(234,0)	(20,0)	(1,1)	(19,0)	(257,0)	(1,0)	(1,0)	(1,0)	
L1D -254>	(256,2)	(-12,6)	(0,17)	(14,2)	(1,3)	(2,29)	(8,1)	(394,1)	(20,40)	(19,8)	(-20,4)	(257,4)	(254,3)	(62,1)	(278,2)	(6,2)	
L1D -253>	(1,7)	(3,3)	(253,15)	(6,7)	(0,14)	(12,1)	(-20,6)	(26,2)	(24,9)	(19,1)	(2,2)	(13,1)	(29,1)	(146,1)	(255,2)	(252,1)	
L1D -252>	(253,3)	(2,4)	(255,2)	(7,2)	(-26,1)	(1,8)	(264,2)	(19,16)	(251,1)	(-3,1)	(257,5)	(0,17)	(240,2)	(-12,9)	(20,8)	(-20,7)	
L1D -251>	(1,71)	(255,0)	(7,0)	(240,0)	(251,0)	(253,0)	(0,0)	(3,0)	(1,0)	(1,0)	(1,0)	(1,0)	(1,0)	(1,0)	(1,0)	(1,0)	
L1D -250>	(96,0)	(-6,0)	(7,1)	(-18,0)	(248,0)	(1,2)	(0,4)	(84,94)	(250,43)	(-20,2)	(4,1)	(2,7)	(-121,0)	(277,0)	(19,1)	(211,0)	
L1D -249>	(1,16)	(6,4)	(0,19)	(24,23)	(249,9)	(19,6)	(240,2)	(-36,5)	(44,1)	(-48,2)	(30,1)	(251,2)	(26,6)	(276,1)	(318,1)	(228,1)	
L1D -248>	(20,38)	(-18,7)	(-20,12)	(253,1)	(146,1)	(2,6)	(289,1)	(-7,1)	(-26,1)	(4,1)	(19,11)	(116,2)	(0,15)	(246,3)	(3,3)	(38,1)	
L1D -247>	(247,18)	(26,48)	(0,20)	(1,14)	(248,1)	(24,4)	(226,10)	(322,1)	(19,3)	(-20,4)	(22,4)	(6,1)	(249,4)	(245,2)	(4,2)	(146,1)	
L1D -246>	(-20,3)	(19,69)	(247,2)	(13,35)	(250,10)	(-6,3)	(1,8)	(0,11)	(20,12)	(225,5)	(324,1)	(249,4)	(6,1)	(5,1)	(162,1)	(252,1)	
L1D -245>	(13,89)	(-20,2)	(24,4)	(1,0)	(250,20)	(6,1)	(-6,3)	(0,1)	(247,0)	(-1,0)	(7,0)	(14,0)	(245,1)	(3,0)	(26,0)	(249,0)	
L1D -244>	(19,4)	(-26,2)	(-6,2)	(0,16)	(2,3)	(-20,7)	(4,8)	(245,1)	(249,3)	(7,4)	(20,7)	(1,5)	(272,1)	(246,1)	(-149,1)	(298,1)	
L1D -243>	(1,2)	(3,81)	(243,1)	(0,3)	(245,2)	(13,7)	(24,2)	(242,2)	(2,3)	(4,4)	(6,0)	(202,0)	(36,0)	(414,0)	(7,1)	(19,0)	
L1D -242>	(0,9)	(19,2)	(14,2)	(-26,5)	(7,7)	(-1,1)	(265,1)	(-7,1)	(5,1)	(-6,2)	(146,1)	(1,11)	(247,1)	(2,12)	(20,8)	(278,1)	
L1D -241>	(26,44)	(241,34)	(24,23)	(1,6)	(0,6)	(-123,1)	(206,1)	(352,1)	(6,2)	(-34,1)	(-6,2)	(19,2)	(234,1)	(-20,1)	(1,0)	(1,0)	
L1D -240>	(14,4)	(243,1)	(2,5)	(0,13)	(1,6)	(20,14)	(19,5)	(7,2)	(-20,4)	(78,1)	(233,1)	(240,2)	(146,2)	(-26,1)	(26,1)	(241,3)	
L1D -239>	(239,56)	(244,6)	(1,3)	(29,3)	(20,1)	(241,4)	(2,2)	(26,1)	(-256,1)	(4,1)	(-20,6)	(5,3)	(212,1)	(6,2)	(0,12)	(19,1)	
L1D -238>	(292,1)	(0,10)	(6,2)	(-26,2)	(20,12)	(3,4)	(-6,2)	(1,2)	(243,2)	(-20,3)	(12,23)	(2,6)	(19,4)	(240,1)	(231,1)	(5,1)	
L1D -237>	(2,4)	(3,1)	(0,25)	(7,5)	(6,7)	(24,3)	(239,4)	(222,2)	(228,1)	(237,6)	(1,3)	(17,1)	(29,2)	(270,1)	(19,1)	(4,2)	
L1D -236>	(2,5)	(-26,2)	(8,1)	(-20,9)	(-18,5)	(288,1)	(241,4)	(237,5)	(266,2)	(19,10)	(274,1)	(0,9)	(270,1)	(236,3)	(250,1)	(28,2)	
L1D -235>	(2,17)	(400,1)	(5,1)	(1,11)	(24,7)	(235,14)	(19,1)	(237,4)	(228,2)	(0,18)	(196,1)	(20,4)	(239,2)	(-26,3)	(-20,2)	(240,1)	
L1D -234>	(237,3)	(-12,2)	(1,6)	(5,1)	(0,10)	(246,2)	(2,6)	(272,2)	(19,7)	(4,3)	(235,2)	(-18,3)	(6,2)	(241,1)	(28,1)	(254,1)	
L1D -233>	(26,8)	(233,21)	(24,34)	(1,13)	(0,21)	(235,6)	(-20,8)	(2,1)	(35,1)	(208,2)	(-12,1)	(227,7)	(3,4)	(6,4)	(80,1)	(272,1)	
L1D -232>	(2,5)	(19,8)	(0,15)	(-6,2)	(233,17)	(-12,9)	(272,1)	(20,13)	(1,3)	(6,1)	(-20,10)	(3,2)	(234,3)	(231,1)	(225,1)	(268,2)	
L1D -231>	(1,2)	(0,21)	(2,3)	(7,5)	(231,10)	(233,1)	(4,1)	(29,2)	(19,2)	(222,2)	(24,2)	(220,2)	(44,1)	(396,1)	(20,1)	(-26,1)	
L1D -230>	(229,2)	(-20,9)	(0,13)	(1,7)	(-18,2)	(194,1)	(2,13)	(20,11)	(7,6)	(-130,1)	(-16,1)	(223,3)	(460,1)	(146,2)	(3,1)	(-184,1)	
L1D -229>	(26,5)	(1,3)	(24,4)	(-9,108)	(0,49)	(2,4)	(6,2)	(240,1)	(231,7)	(374,7)	(229,2)	(7,6)	(-152,2)	(-20,1)	(3,3)	(-154,1)	
L1D -228>	(6,2)	(4,3)	(0,24)	(-12,1)	(-27,2)	(231,3)	(-20,22)	(192,1)	(233,4)	(146,1)	(1,2)	(234,6)	(223,10)	(164,1)	(-106,1)	(20,1)	
L1D -227>	(1,10)	(227,21)	(188,19)	(6,2)	(5,2)	(-12,1)	(0,19)	(-20,5)	(20,2)	(24,2)	(229,4)	(26,2)	(19,2)	(304,1)	(4,1)	(296,1)	
L1D -226>	(6,5)	(0,16)	(-3,82)	(2,4)	(219,2)	(187,5)	(360,1)	(-20,4)	(267,1)	(271,1)	(20,6)	(-138,1)	(229,1)	(7,1)	(1,3)	(-26,1)	
L1D -225>	(26,5)	(225,60)	(0,11)	(24,30)	(1,13)	(19,5)	(29,2)	(-20,24)	(227,2)	(222,2)	(221,2)	(224,1)	(6,1)	(252,2)	(-128,1)	(-48,1)	
L1D -224>	(1,2)	(384,1)	(20,16)	(0,15)	(14,2)	(4,4)	(19,30)	(224,12)	(-20,8)	(218,1)	(272,1)	(28,2)	(-4,7)	(-73,1)	(24,3)	(-2,1)	
L1D -223>	(223,20)	(225,10)	(1,2)	(2,7)	(0,15)	(19,7)	(-20,11)	(7,2)	(233,1)	(224,1)	(406,1)	(20,2)	(-40,1)	(216,1)	(188,1)	(-1,1)	
L1D -222>	(220,3)	(19,1)	(7,2)	(0,9)	(20,14)	(-26,3)	(1,6)	(-18,3)	(225,1)	(228,1)	(2,14)	(-20,18)	(256,3)	(4,1)	(-25,1)	(186,1)	
L1D -221>	(248,1)	(2,35)	(221,22)	(5,9)	(29,3)	(6,8)	(225,1)	(228,3)	(7,1)	(223,6)	(322,4)	(0,9)	(1,7)	(-20,2)	(414,1)	(3,1)	
L1D -220>	(-20,10)	(19,4)	(28,1)	(-18,2)	(-120,1)	(2,2)	(-26,10)	(220,1)	(256,1)	(1,7)	(0,19)	(16,1)	(278,1)	(248,1)	(261,2)	(5,1)	
L1D -219>	(224,1)	(3,11)	(219,67)	(0,24)	(7,2)	(2,5)	(19,5)	(1,4)	(-90,1)	(-20,11)	(226,1)	(434,2)	(6,6)	(-5,1)	(221,2)	(20,1)	
L1D -218>	(2,26)	(219,1)	(0,14)	(20,1)	(7,1)	(117,2)	(1,12)	(19,3)	(-120,1)	(-30,1)	(302,1)	(-72,1)	(-20,5)	(4,5)	(221,1)	(-26,1)	
L1D -217>	(26,8)	(217,2)	(221,1)	(24,3)	(212,2)	(2,1)	(205,1)	(19,7)	(218,1)	(224,4)	(219,6)	(0,10)	(-20,4)	(117,1)	(6,1)	(-6,1)	
L1D -216>	(216,6)	(14,3)	(2,6)	(20,99)	(27,2)	(0,21)	(252,1)	(-140,1)	(-18,2)	(217,2)	(-20,5)	(4,4)	(6,1)	(1,3)	(28,2)	(24,1)	
L1D -215>	(3,4)	(0,28)	(2,17)	(-20,3)	(-26,3)	(5,9)	(316,3)	(206,1)	(214,1)	(215,4)	(24,2)	(217,4)	(159,1)	(222,1)	(20,1)	(-39,1)	
L1D -214>	(208,1)	(0,23)	(3,8)	(217,1)	(-26,3)	(-20,3)	(427,1)	(-1,2)	(214,1)	(20,3)	(24,1)	(240,1)	(140,1)	(4,2)	(402,1)	(1,5)	
L1D -213>	(0,35)	(6,1)	(213,10)	(1,4)	(217,1)	(220,2)	(258,1)	(215,7)	(-5,1)	(4,1)	(205,1)	(29,1)	(2,1)	(211,2)	(5,1)	(7,1)	
L1D -212>	(-20,13)	(213,1)	(0,21)	(214,5)	(266,1)	(212,1)	(-1,1)	(-118,1)	(219,3)	(3,5)	(14,1)	(20,1)	(1,8)	(205,2)	(189,3)	(253,1)	
L1D -211>	(211,41)	(1,3)	(5,9)	(6,9)	(215,1)	(2,3)	(212,2)	(213,1)	(0,51)	(-20,5)	(20,2)	(-63,1)	(29,2)	(-1,1)	(3,1)	(366,1)	
L1D -210>	(0,43)	(4,1)	(248,1)	(-11,1)	(182,1)	(1,11)	(3,2)	(19,1)	(502,1)	(480,1)	(-26,1)	(213,1)	(-14,1)	(216,1)	(-18,2)	(286,2)	
L1D -209>	(26,76)	(0,18)	(1,6)	(29,7)	(213,1)	(216,6)	(19,1)	(24,8)	(-206,1)	(209,4)	(6,1)	(211,1)	(329,1)	(-182,1)	(-1,1)	(4,2)	
L1D -208>	(1,6)	(213,1)	(19,15)	(209,12)	(0,16)	(26,2)	(6,2)	(24,1)	(20,4)	(376,1)	(412,1)	(-1,1)	(182,1)	(-152,1)	(-20,1)	(7,2)	
L1D -207>	(207,17)	(7,1)	(0,14)	(2,9)	(174,1)	(198,3)	(209,22)	(6,4)	(-20,3)	(14,1)	(211,2)	(233,1)	(26,1)	(1,2)	(4,1)	(24,2)	
L1D -206>	(0,104)	(212,0)	(264,0)	(2,0)	(204,1)	(4,0)	(62,0)	(20,0)	(1,6)	(1,0)	(1,0)	(1,0)	(1,0)	(1,0)	(1,0)	(1,0)	
L1D -205>	(0,66)	(212,0)	(1,1)	(198,0)	(4,0)	(6,1)	(1,0)	(1,0)	(1,0)	(1,0)	(1,0)	(1,0)	(1,0)	(1,0)	(1,0)	(1,0)	
L1D -204>	(0,32)	(198,1)	(210,1)	(233,2)	(-18,3)	(-20,5)	(248,1)	(211,4)	(-6,1)	(212,1)	(-11,1)	(1,3)	(205,1)	(6,1)	(117,1)	(1,0)	
L1D -203>	(203,38)	(6,3)	(1,6)	(0,50)	(-152,1)	(-20,2)	(205,1)	(207,2)	(-6,2)	(2,3)	(24,2)	(204,1)	(-12,1)	(464,1)	(37,1)	(272,1)	
L1D -202>	(0,24)	(464,1)	(-159,1)	(248,3)	(278,1)	(117,3)	(-102,1)	(264,2)	(1,2)	(-6,1)	(-124,1)	(202,2)	(18,2)	(6,1)	(-20,1)	(235,1)	
L1D -201>	(1,4)	(0,25)	(2,1)	(203,2)	(414,1)	(29,4)	(17,1)	(384,1)	(201,1)	(-132,1)	(10,1)	(208,1)	(256,1)	(1,0)	(1,0)	(1,0)	
L1D -200>	(207,1)	(-18,1)	(0,46)	(3,8)	(1,3)	(200,1)	(6,2)	(24,2)	(201,2)	(-4,1)	(198,1)	(18,1)	(364,1)	(-2,2)	(-6,1)	(324,1)	
L1D -199>	(0,52)	(227,1)	(201,5)	(-26,1)	(187,1)	(7,2)	(91,1)	(200,1)	(6,1)	(3,1)	(-6,1)	(-2,1)	(188,1)	(2,1)	(197,1)	(4,1)	
L1D -198>	(-26,6)	(229,1)	(-18,3)	(0,22)	(1,8)	(188,3)	(120,1)	(6,2)	(402,1)	(-282,1)	(205,1)	(224,1)	(-20,1)	(199,2)	(196,1)	(201,1)	
L1D -197>	(1,8)	(3,13)	(-61,16)	(0,36)	(199,14)	(126,1)	(280,1)	(13,3)	(-1,1)	(-56,1)	(14,1)	(196,2)	(187,1)	(6,1)	(2,1)	(-26,1)	
L1D -196>	(-6,2)	(196,42)	(0,33)	(-18,7)	(1,3)	(225,1)	(207,1)	(-14,5)	(4,5)	(201,1)	(-20,3)	(-28,1)	(-137,1)	(6,1)	(-138,1)	(356,1)	
L1D -195>	(0,38)	(1,6)	(195,14)	(192,1)	(-20,5)	(342,1)	(252,1)	(194,1)	(225,1)	(20,1)	(130,1)	(-1,1)	(1,0)	(1,0)	(1,0)	(1,0)	
L1D -194>	(0,29)	(1,6)	(192,4)	(34,1)	(213,1)	(194,1)	(190,1)	(207,1)	(270,1)	(197,1)	(245,2)	(191,1)	(2,1)	(4,1)	(80,1)	(-12,1)	
L1D -193>	(220,5)	(0,34)	(-26,2)	(1,5)	(276,2)	(122,1)	(7,3)	(-6,1)	(193,3)	(24,1)	(197,1)	(146,1)	(216,1)	(226,1)	(160,1)	(268,1)	
L1D -192>	(0,33)	(193,7)	(422,1)	(1,5)	(-169,1)	(-44,1)	(-100,1)	(220,2)	(117,2)	(162,1)	(-28,1)	(146,1)	(-18,1)	(102,1)	(192,1)	(12,2)	
L1D -191>	(6,7)	(0,31)	(193,20)	(220,6)	(191,4)	(-124,1)	(-20,2)	(2,2)	(210,1)	(29,1)	(124,1)	(192,2)	(7,8)	(1,4)	(-26,6)	(24,1)	
L1D -190>	(0,19)	(245,1)	(412,1)	(-20,1)	(462,1)	(1,5)	(270,1)	(4,1)	(36,1)	(122,1)	(146,1)	(191,1)	(193,1)	(-298,1)	(-28,1)	(-228,1)	
L1D -189>	(0,27)	(1,3)	(191,4)	(24,4)	(-20,1)	(234,1)	(196,1)	(212,1)	(6,5)	(188,1)	(184,1)	(1,0)	(1,0)	(1,0)	(1,0)	(1,0)	
L1D -188>	(0,18)	(211,3)	(28,3)	(-20,2)	(198,1)	(1,9)	(83,1)	(414,1)	(-6,1)	(116,1)	(48,1)	(-18,2)	(188,2)	(236,1)	(248,1)	(1,0)	
L1D -187>	(187,120)	(6,2)	(0,22)	(1,7)	(-20,29)	(146,2)	(148,1)	(183,1)	(122,1)	(272,1)	(100,1)	(1,0)	(1,0)	(1,0)	(1,0)	(1,0)	
L1D -186>	(0,18)	(2,1)	(4,1)	(6,1)	(191,2)	(1,6)	(220,1)	(252,1)	(232,1)	(-181,1)	(240,1)	(-18,1)	(390,1)	(190,1)	(1,0)	(1,0)	
L1D -185>	(1,4)	(0,20)	(6,1)	(194,1)	(4,1)	(185,1)	(12,1)	(1,0)	(1,0)	(1,0)	(1,0)	(1,0)	(1,0)	(1,0)	(1,0)	(1,0)	
L1D -184>	(0,17)	(17,2)	(28,5)	(204,2)	(6,2)	(24,1)	(1,4)	(146,5)	(156,1)	(20,2)	(232,1)	(-18,1)	(2,1)	(184,3)	(1,0)	(1,0)	
L1D -183>	(0,34)	(2,70)	(1,6)	(-9,6)	(5,1)	(6,5)	(-86,1)	(16,1)	(4,1)	(18,1)	(-122,1)	(1,0)	(1,0)	(1,0)	(1,0)	(1,0)	
L1D -182>	(-192,1)	(-26,2)	(0,27)	(146,2)	(-124,1)	(1,6)	(278,1)	(187,1)	(-18,3)	(4,4)	(6,1)	(-44,1)	(182,1)	(-104,1)	(7,1)	(-1,1)	
L1D -181>	(0,22)	(1,4)	(183,2)	(142,2)	(-1,2)	(5,3)	(-180,1)	(181,1)	(4,1)	(27,1)	(1,0)	(1,0)	(1,0)	(1,0)	(1,0)	(1,0)	
L1D -180>	(0,24)	(-98,1)	(26,1)	(34,25)	(50,23)	(-28,1)	(-11,1)	(304,1)	(33,3)	(374,1)	(48,1)	(-276,1)	(17,1)	(1,2)	(-18,3)	(24,1)	
L1D -179>	(0,24)	(34,18)	(1,12)	(-116,1)	(66,1)	(6,1)	(179,1)	(1,0)	(1,0)	(1,0)	(1,0)	(1,0)	(1,0)	(1,0)	(1,0)	(1,0)	
L1D -178>	(0,18)	(1,8)	(238,1)	(-58,1)	(344,1)	(184,1)	(440,1)	(-1,1)	(119,1)	(1,0)	(1,0)	(1,0)	(1,0)	(1,0)	(1,0)	(1,0)	
L1D -177>	(0,31)	(1,26)	(171,61)	(2,1)	(177,15)	(3,22)	(182,1)	(6,1)	(90,3)	(14,1)	(204,1)	(138,2)	(12,1)	(-120,1)	(-137,1)	(-19,1)	
L1D -176>	(0,20)	(170,2)	(177,56)	(366,1)	(171,1)	(182,4)	(-18,1)	(2,3)	(83,1)	(218,1)	(1,9)	(174,1)	(4,1)	(-24,1)	(5,1)	(-2,1)	
L1D -175>	(170,108)	(1,10)	(-168,88)	(0,21)	(177,1)	(171,113)	(6,5)	(3,3)	(136,5)	(-178,1)	(174,1)	(150,1)	(1,0)	(1,0)	(1,0)	(1,0)	
L1D -174>	(1,9)	(28,25)	(-3,124)	(168,77)	(338,78)	(0,42)	(50,34)	(87,33)	(343,1)	(53,1)	(115,2)	(100,1)	(5,1)	(1,0)	(1,0)	(1,0)	
L1D -173>	(-1,47)	(28,115)	(172,0)	(342,0)	(99,0)	(324,0)	(0,2)	(6,0)	(86,2)	(105,0)	(2,0)	(1,1)	(1,0)	(1,0)	(1,0)	(1,0)	
L1D -172>	(171,3)	(173,12)	(400,1)	(0,14)	(167,106)	(172,2)	(178,21)	(-170,1)	(280,1)	(-6,1)	(1,6)	(-126,1)	(312,1)	(-16,1)	(90,1)	(117,2)	
L1D -171>	(171,125)	(172,3)	(170,1)	(1,6)	(-1,2)	(6,4)	(176,6)	(167,7)	(-57,2)	(0,12)	(132,1)	(177,105)	(90,28)	(-4,37)	(109,0)	(166,7)	
L1D -170>	(33,53)	(0,17)	(-167,85)	(170,9)	(6,47)	(-168,3)	(184,0)	(-218,0)	(1,1)	(92,0)	(1,0)	(1,0)	(1,0)	(1,0)	(1,0)	(1,0)	
L1D -169>	(1,12)	(169,7)	(170,31)	(-3,7)	(-6,11)	(168,3)	(87,2)	(0,31)	(27,8)	(338,5)	(5,8)	(157,1)	(2,1)	(-1,1)	(-126,1)	(414,1)	
L1D -168>	(168,39)	(1,20)	(-3,78)	(338,14)	(-4,5)	(176,1)	(0,1)	(87,38)	(343,86)	(106,0)	(115,5)	(95,0)	(6,0)	(1,0)	(1,0)	(1,0)	
L1D -167>	(-4,63)	(0,2)	(414,0)	(167,10)	(172,0)	(86,72)	(342,49)	(168,0)	(128,0)	(114,7)	(24,0)	(22,0)	(1,0)	(1,0)	(1,0)	(1,0)	
L1D -166>	(0,6)	(1,2)	(2,1)	(-4,73)	(4,0)	(-154,0)	(169,0)	(6,0)	(166,0)	(254,0)	(1,0)	(1,0)	(1,0)	(1,0)	(1,0)	(1,0)	
L1D -165>	(1,4)	(164,5)	(0,24)	(166,3)	(169,7)	(165,1)	(382,1)	(-62,1)	(240,1)	(24,1)	(-1,1)	(1,0)	(1,0)	(1,0)	(1,0)	(1,0)	
L1D -164>	(0,5)	(-174,5)	(-173,2)	(169,102)	(164,4)	(1,3)	(392,1)	(5,1)	(362,0)	(-6,3)	(396,0)	(1,0)	(1,0)	(1,0)	(1,0)	(1,0)	
L1D -163>	(1,6)	(0,7)	(24,1)	(3,1)	(163,5)	(27,3)	(164,2)	(6,3)	(376,1)	(124,2)	(270,1)	(-94,1)	(4,1)	(5,1)	(1,0)	(1,0)	
L1D -162>	(163,4)	(1,6)	(-74,1)	(162,4)	(89,1)	(0,5)	(109,1)	(378,1)	(85,2)	(152,1)	(60,1)	(161,1)	(238,1)	(114,1)	(4,1)	(1,0)	
L1D -161>	(0,75)	(-14,86)	(1,3)	(2,3)	(162,2)	(6,1)	(-9,2)	(128,2)	(-8,2)	(24,1)	(161,3)	(334,1)	(13,1)	(122,2)	(-154,1)	(414,1)	
L1D -160>	(0,8)	(5,1)	(12,17)	(2,2)	(34,2)	(1,1)	(160,2)	(100,1)	(161,2)	(-1,1)	(178,1)	(-28,1)	(-282,1)	(-159,1)	(140,1)	(3,1)	
L1D -159>	(-99,99)	(-98,3)	(144,0)	(-64,0)	(0,0)	(160,0)	(5,0)	(126,0)	(120,0)	(2,0)	(27,0)	(1,0)	(1,0)	(1,0)	(1,0)	(1,0)	
L1D -158>	(1,7)	(-46,22)	(0,15)	(178,2)	(158,7)	(6,1)	(-244,1)	(-3,1)	(-2,1)	(-210,1)	(394,1)	(159,2)	(3,3)	(2,1)	(112,1)	(125,1)	
L1D -157>	(157,6)	(1,1)	(3,94)	(0,2)	(-224,1)	(13,9)	(2,2)	(4,4)	(158,1)	(-39,0)	(10,0)	(159,0)	(1,0)	(1,0)	(1,0)	(1,0)	
L1D -156>	(156,6)	(-4,3)	(0,8)	(3,12)	(157,7)	(214,1)	(6,3)	(85,3)	(52,7)	(152,1)	(304,1)	(1,4)	(228,1)	(78,1)	(4,1)	(123,1)	
L1D -155>	(155,18)	(1,12)	(0,4)	(3,1)	(52,18)	(135,2)	(6,1)	(116,2)	(-26,1)	(2,5)	(-137,3)	(-154,1)	(1,0)	(1,0)	(1,0)	(1,0)	
L1D -154>	(155,14)	(1,7)	(0,11)	(10,1)	(335,1)	(24,1)	(154,2)	(139,1)	(206,1)	(376,1)	(82,1)	(374,1)	(298,1)	(1,0)	(1,0)	(1,0)	
L1D -153>	(6,2)	(1,8)	(154,3)	(12,24)	(98,1)	(133,2)	(0,4)	(153,3)	(2,3)	(326,1)	(8,1)	(13,1)	(127,1)	(184,1)	(5,2)	(3,1)	
L1D -152>	(0,9)	(99,2)	(85,2)	(1,7)	(32,1)	(346,1)	(152,2)	(153,6)	(322,1)	(-48,1)	(-94,1)	(378,1)	(12,4)	(-272,1)	(132,1)	(1,0)	
L1D -151>	(5,2)	(0,5)	(1,6)	(152,5)	(125,1)	(12,1)	(-13,2)	(151,2)	(118,1)	(1,0)	(1,0)	(1,0)	(1,0)	(1,0)	(1,0)	(1,0)	
L1D -150>	(56,2)	(0,9)	(150,7)	(151,3)	(83,1)	(144,1)	(229,1)	(1,3)	(188,1)	(5,1)	(72,1)	(178,1)	(-98,1)	(153,1)	(160,1)	(-114,1)	
L1D -149>	(1,1)	(5,1)	(3,107)	(27,1)	(0,3)	(13,13)	(371,1)	(123,2)	(20,1)	(4,4)	(149,9)	(276,1)	(-328,1)	(24,1)	(-214,0)	(1,0)	
L1D -148>	(-10,2)	(151,1)	(5,1)	(1,5)	(6,1)	(148,6)	(4,1)	(3,26)	(149,3)	(0,8)	(20,1)	(13,1)	(102,1)	(-197,1)	(-1,1)	(1,0)	
L1D -147>	(-135,1)	(141,94)	(30,1)	(121,1)	(1,1)	(0,0)	(-33,32)	(17,2)	(34,0)	(1,0)	(1,0)	(1,0)	(1,0)	(1,0)	(1,0)	(1,0)	
L1D -146>	(5,0)	(9,67)	(2,15)	(-33,5)	(61,0)	(146,0)	(0,0)	(1,1)	(92,0)	(142,0)	(-14,0)	(64,0)	(1,0)	(1,0)	(1,0)	(1,0)	
L1D -145>	(2,4)	(145,12)	(1,10)	(-8,2)	(5,20)	(12,34)	(-14,20)	(147,1)	(0,2)	(346,1)	(356,1)	(146,3)	(9,1)	(-12,1)	(106,1)	(190,1)	
L1D -144>	(0,74)	(7,78)	(-26,22)	(1,2)	(-9,1)	(373,0)	(151,1)	(12,3)	(20,1)	(228,0)	(144,2)	(37,1)	(145,0)	(166,0)	(88,0)	(154,0)	
L1D -143>	(0,20)	(19,3)	(-92,1)	(143,4)	(1,4)	(144,4)	(-137,1)	(124,2)	(-184,1)	(27,2)	(178,1)	(280,1)	(-222,1)	(-206,1)	(68,1)	(3,1)	
L1D -142>	(5,10)	(69,1)	(1,5)	(142,8)	(19,14)	(143,2)	(149,2)	(2,1)	(0,7)	(82,1)	(61,1)	(71,1)	(220,1)	(54,1)	(371,2)	(394,1)	
L1D -141>	(1,4)	(-3,44)	(141,4)	(0,3)	(108,1)	(-1,1)	(385,1)	(142,3)	(140,1)	(502,1)	(6,1)	(-160,1)	(1,0)	(1,0)	(1,0)	(1,0)	
L1D -140>	(0,15)	(2,1)	(1,7)	(61,1)	(-3,4)	(140,4)	(-12,1)	(28,1)	(60,1)	(238,1)	(-2,1)	(141,2)	(182,1)	(-30,1)	(5,1)	(1,0)	
L1D -139>	(1,8)	(100,2)	(-126,1)	(-182,1)	(19,5)	(139,2)	(3,7)	(140,2)	(112,1)	(414,1)	(376,1)	(0,3)	(-96,1)	(-1,1)	(-238,1)	(-170,1)	
L1D -138>	(158,1)	(1,6)	(0,9)	(292,1)	(138,6)	(-237,1)	(136,1)	(344,1)	(280,1)	(139,1)	(5,1)	(386,1)	(1,0)	(1,0)	(1,0)	(1,0)	
L1D -137>	(-7,118)	(0,8)	(4,1)	(204,0)	(13,0)	(-33,39)	(19,0)	(-14,0)	(5,0)	(206,0)	(176,0)	(-13,0)	(6,0)	(1,0)	(1,0)	(1,0)	
L1D -136>	(0,123)	(-137,1)	(1,3)	(136,1)	(-314,1)	(-9,2)	(28,0)	(3,0)	(137,2)	(117,0)	(1,0)	(1,0)	(1,0)	(1,0)	(1,0)	(1,0)	
L1D -135>	(0,38)	(2,7)	(1,7)	(-1,2)	(135,8)	(6,33)	(5,1)	(-2,1)	(-222,1)	(7,6)	(-9,2)	(-34,1)	(24,1)	(-267,1)	(10,1)	(468,1)	
L1D -134>	(135,8)	(5,5)	(1,9)	(0,10)	(152,1)	(-175,1)	(-1,3)	(198,1)	(134,4)	(122,1)	(6,1)	(342,1)	(190,1)	(114,1)	(137,1)	(-18,1)	
L1D -133>	(1,6)	(-3,51)	(159,2)	(133,5)	(3,1)	(-6,1)	(2,4)	(6,1)	(0,6)	(372,1)	(-12,1)	(302,1)	(-256,1)	(134,7)	(204,1)	(24,1)	
L1D -132>	(6,115)	(-106,0)	(132,3)	(133,0)	(0,2)	(33,3)	(179,30)	(5,2)	(332,0)	(2,0)	(1,2)	(1,0)	(1,0)	(1,0)	(1,0)	(1,0)	
L1D -131>	(6,12)	(166,1)	(1,2)	(24,3)	(157,2)	(132,3)	(131,5)	(30,1)	(179,3)	(-1,1)	(-128,1)	(0,4)	(2,1)	(33,1)	(89,1)	(70,1)	
L1D -130>	(0,6)	(1,23)	(302,1)	(-129,1)	(21,6)	(104,1)	(-137,1)	(426,1)	(55,1)	(131,2)	(5,2)	(304,1)	(-1,1)	(76,1)	(130,5)	(2,2)	
L1D -129>	(1,5)	(96,1)	(129,5)	(0,8)	(6,4)	(3,2)	(-2,1)	(-1,1)	(130,4)	(-184,1)	(384,1)	(394,1)	(346,1)	(1,0)	(1,0)	(1,0)	
L1D -128>	(-2,6)	(61,1)	(0,11)	(412,1)	(5,4)	(129,4)	(179,5)	(51,2)	(102,2)	(6,6)	(1,3)	(-132,1)	(33,1)	(2,4)	(-166,1)	(8,1)	
L1D -127>	(46,1)	(1,3)	(13,1)	(127,4)	(386,1)	(6,1)	(117,1)	(2,1)	(372,1)	(0,4)	(-126,1)	(128,1)	(40,1)	(1,0)	(1,0)	(1,0)	
L1D -126>	(1,6)	(173,10)	(226,1)	(6,73)	(0,15)	(412,1)	(336,1)	(179,50)	(4,1)	(-2,1)	(59,1)	(-162,1)	(2,1)	(126,5)	(33,7)	(127,6)	
L1D -125>	(0,5)	(125,11)	(1,3)	(5,4)	(-348,2)	(3,2)	(126,2)	(151,1)	(-13,1)	(-228,1)	(-214,1)	(1,0)	(1,0)	(1,0)	(1,0)	(1,0)	
L1D -124>	(21,81)	(125,3)	(1,9)	(2,1)	(204,1)	(143,1)	(6,1)	(124,10)	(252,1)	(-10,1)	(0,14)	(58,1)	(380,1)	(238,1)	(105,2)	(5,1)	
L1D -123>	(105,73)	(0,2)	(146,0)	(1,1)	(414,0)	(123,1)	(3,0)	(124,1)	(134,0)	(24,0)	(1,0)	(1,0)	(1,0)	(1,0)	(1,0)	(1,0)	
L1D -122>	(5,1)	(117,92)	(1,1)	(123,0)	(244,0)	(0,1)	(122,0)	(-228,0)	(1,0)	(1,0)	(1,0)	(1,0)	(1,0)	(1,0)	(1,0)	(1,0)	
L1D -121>	(1,5)	(2,1)	(0,4)	(-35,1)	(156,2)	(122,2)	(369,1)	(319,1)	(11,7)	(121,5)	(6,4)	(63,1)	(371,2)	(144,2)	(3,1)	(256,1)	
L1D -120>	(103,90)	(5,1)	(6,0)	(1,2)	(53,0)	(119,0)	(0,2)	(30,0)	(121,0)	(120,4)	(-259,0)	(1,0)	(1,0)	(1,0)	(1,0)	(1,0)	
L1D -119>	(1,2)	(-72,1)	(0,4)	(119,3)	(24,1)	(46,1)	(120,1)	(6,6)	(9,1)	(77,2)	(-103,1)	(36,2)	(-220,1)	(104,1)	(-16,1)	(5,1)	
L1D -118>	(-103,1)	(1,5)	(412,1)	(61,1)	(118,9)	(206,1)	(-205,1)	(356,1)	(72,1)	(0,7)	(119,3)	(5,1)	(58,1)	(164,1)	(1,0)	(1,0)	
L1D -117>	(71,57)	(82,49)	(5,1)	(-5,77)	(1,1)	(112,0)	(117,5)	(67,0)	(55,1)	(2,1)	(0,1)	(116,0)	(-104,0)	(118,1)	(-48,0)	(-288,0)	
L1D -116>	(-7,110)	(81,123)	(87,1)	(61,1)	(116,14)	(1,6)	(0,9)	(100,1)	(398,1)	(2,1)	(117,3)	(123,1)	(5,1)	(49,1)	(380,1)	(28,1)	
L1D -115>	(80,100)	(1,12)	(-5,56)	(115,9)	(5,2)	(0,8)	(53,8)	(98,41)	(112,5)	(3,7)	(-44,1)	(-17,1)	(-2,3)	(47,1)	(69,20)	(2,3)	
L1D -114>	(5,6)	(1,6)	(218,1)	(62,1)	(0,11)	(140,1)	(115,7)	(114,10)	(250,1)	(-36,1)	(-253,1)	(121,2)	(68,2)	(6,3)	(-103,1)	(-190,1)	
L1D -113>	(1,8)	(0,7)	(78,30)	(51,4)	(67,6)	(17,1)	(-9,14)	(-82,1)	(3,1)	(114,4)	(113,3)	(90,1)	(63,1)	(115,1)	(-56,1)	(68,1)	
L1D -112>	(1,7)	(113,13)	(-137,1)	(-4,10)	(112,8)	(0,12)	(86,8)	(452,1)	(61,1)	(-60,1)	(5,1)	(3,1)	(418,1)	(-1,1)	(1,0)	(1,0)	
L1D -111>	(45,56)	(1,8)	(93,69)	(0,4)	(-14,1)	(5,6)	(98,25)	(79,9)	(24,2)	(46,1)	(6,5)	(100,8)	(150,1)	(202,1)	(-184,1)	(62,1)	
L1D -110>	(1,4)	(110,5)	(7,3)	(113,1)	(-114,1)	(0,123)	(-1,12)	(98,8)	(78,7)	(97,16)	(99,8)	(111,3)	(112,1)	(9,3)	(64,0)	(5,0)	
L1D -109>	(0,8)	(98,4)	(5,6)	(100,3)	(1,7)	(99,84)	(7,10)	(97,47)	(110,1)	(450,1)	(-38,1)	(78,7)	(-42,1)	(-230,1)	(148,1)	(109,4)	
L1D -108>	(-10,44)	(78,77)	(0,30)	(-158,0)	(107,2)	(60,3)	(-107,0)	(-6,2)	(-1,0)	(5,0)	(97,3)	(108,0)	(99,0)	(500,0)	(1,0)	(1,0)	
L1D -107>	(0,7)	(1,4)	(107,27)	(6,2)	(24,2)	(3,1)	(-2,1)	(108,5)	(-54,1)	(5,2)	(100,1)	(156,1)	(116,1)	(186,1)	(-82,1)	(1,0)	
L1D -106>	(0,3)	(117,110)	(89,1)	(106,7)	(99,0)	(107,2)	(6,0)	(2,0)	(1,1)	(1,0)	(1,0)	(1,0)	(1,0)	(1,0)	(1,0)	(1,0)	
L1D -105>	(0,92)	(-4,40)	(86,9)	(-328,62)	(-2,1)	(3,1)	(-1,1)	(24,0)	(1,0)	(1,0)	(1,0)	(1,0)	(1,0)	(1,0)	(1,0)	(1,0)	
L1D -104>	(0,4)	(103,3)	(3,3)	(-52,123)	(104,15)	(-102,10)	(92,1)	(336,1)	(105,2)	(52,1)	(-103,1)	(2,1)	(-2,1)	(-1,1)	(-104,1)	(-4,1)	
L1D -103>	(0,1)	(-52,6)	(60,107)	(97,0)	(103,11)	(142,0)	(-102,0)	(7,1)	(104,14)	(99,1)	(1,0)	(1,0)	(1,0)	(1,0)	(1,0)	(1,0)	
L1D -102>	(0,89)	(1,13)	(390,1)	(102,15)	(6,5)	(-76,2)	(103,11)	(2,3)	(113,1)	(30,1)	(-101,1)	(104,1)	(-9,1)	(65,1)	(121,1)	(5,2)	
L1D -101>	(0,8)	(28,1)	(101,15)	(13,5)	(3,1)	(98,9)	(102,11)	(5,1)	(180,1)	(-2,1)	(146,1)	(140,1)	(24,1)	(158,1)	(-137,2)	(-1,1)	
L1D -100>	(99,5)	(61,4)	(62,16)	(5,2)	(113,3)	(100,31)	(0,4)	(101,21)	(1,5)	(236,1)	(272,1)	(16,1)	(-272,1)	(6,1)	(106,1)	(-118,1)	
L1D -99>	(0,43)	(99,19)	(258,0)	(2,0)	(78,11)	(110,0)	(60,4)	(89,5)	(62,86)	(14,0)	(98,0)	(24,16)	(87,0)	(79,0)	(61,1)	(1,0)	
L1D -98>	(60,61)	(0,43)	(-1,16)	(78,74)	(98,61)	(5,0)	(97,10)	(109,2)	(-103,0)	(99,7)	(24,1)	(111,0)	(1,0)	(1,0)	(1,0)	(1,0)	
L1D -97>	(98,114)	(1,1)	(0,1)	(99,1)	(97,24)	(109,0)	(-96,0)	(-103,0)	(150,0)	(1,0)	(1,0)	(1,0)	(1,0)	(1,0)	(1,0)	(1,0)	
L1D -96>	(97,12)	(-9,115)	(1,14)	(85,7)	(2,4)	(107,46)	(292,1)	(96,15)	(98,8)	(-28,11)	(0,6)	(95,2)	(-1,7)	(288,1)	(126,1)	(52,2)	
L1D -95>	(1,17)	(95,16)	(24,11)	(0,3)	(485,1)	(2,7)	(8,3)	(483,1)	(5,7)	(-5,1)	(96,7)	(480,1)	(140,1)	(489,1)	(-94,1)	(101,1)	
L1D -94>	(1,9)	(0,8)	(95,10)	(328,1)	(100,1)	(5,2)	(94,7)	(-145,2)	(-172,1)	(93,1)	(75,1)	(2,1)	(13,2)	(200,1)	(-314,1)	(468,1)	
L1D -93>	(-8,121)	(107,8)	(0,1)	(146,1)	(124,1)	(128,0)	(111,1)	(93,2)	(132,1)	(24,9)	(4,0)	(1,0)	(1,0)	(1,0)	(1,0)	(1,0)	
L1D -92>	(63,1)	(-9,91)	(107,11)	(97,1)	(86,1)	(91,1)	(28,0)	(92,2)	(116,0)	(93,0)	(0,1)	(-312,0)	(1,1)	(-318,0)	(-1,0)	(-4,1)	
L1D -91>	(122,0)	(130,0)	(96,74)	(175,14)	(-48,0)	(0,0)	(91,1)	(92,0)	(1,0)	(1,0)	(1,0)	(1,0)	(1,0)	(1,0)	(1,0)	(1,0)	
L1D -90>	(97,1)	(0,11)	(91,104)	(92,0)	(28,0)	(-36,0)	(90,0)	(-2,0)	(95,0)	(1,1)	(1,0)	(1,0)	(1,0)	(1,0)	(1,0)	(1,0)	
L1D -89>	(98,59)	(1,9)	(0,39)	(5,1)	(89,11)	(90,6)	(-88,1)	(87,17)	(78,12)	(99,4)	(24,1)	(2,1)	(-1,2)	(80,1)	(1,0)	(1,0)	
L1D -88>	(1,3)	(6,111)	(479,1)	(88,2)	(354,1)	(7,4)	(478,1)	(0,2)	(18,0)	(61,0)	(26,32)	(34,0)	(9,2)	(2,0)	(89,1)	(122,0)	
L1D -87>	(98,95)	(1,3)	(-126,0)	(0,58)	(-222,0)	(-4,0)	(97,0)	(171,0)	(7,0)	(2,0)	(88,0)	(1,0)	(1,0)	(1,0)	(1,0)	(1,0)	
L1D -86>	(1,18)	(87,63)	(256,1)	(85,8)	(86,10)	(-4,29)	(-178,1)	(28,2)	(-154,1)	(99,1)	(-219,1)	(414,1)	(0,8)	(154,1)	(-26,1)	(-137,1)	
L1D -85>	(92,70)	(-8,36)	(72,5)	(45,1)	(90,1)	(-202,1)	(1,8)	(107,7)	(86,1)	(85,0)	(82,0)	(4,0)	(6,0)	(84,0)	(-1,0)	(0,1)	
L1D -84>	(6,4)	(85,25)	(347,1)	(1,3)	(84,11)	(47,2)	(55,3)	(-104,1)	(-137,1)	(0,14)	(26,2)	(-103,1)	(386,1)	(254,1)	(-74,1)	(86,1)	
L1D -83>	(-9,72)	(90,0)	(108,6)	(-5,7)	(0,0)	(84,1)	(83,0)	(1,0)	(1,0)	(1,0)	(1,0)	(1,0)	(1,0)	(1,0)	(1,0)	(1,0)	
L1D -82>	(117,90)	(71,23)	(-5,10)	(-104,1)	(83,1)	(82,0)	(5,0)	(28,0)	(6,1)	(1,0)	(20,0)	(0,2)	(1,0)	(1,0)	(1,0)	(1,0)	
L1D -81>	(-7,66)	(116,53)	(1,11)	(7,3)	(82,1)	(-1,1)	(69,0)	(81,8)	(-242,0)	(75,5)	(2,0)	(3,2)	(0,2)	(72,0)	(1,0)	(1,0)	
L1D -80>	(115,74)	(69,6)	(80,1)	(0,1)	(-5,2)	(368,1)	(79,2)	(2,1)	(18,2)	(81,7)	(3,0)	(1,1)	(96,0)	(1,0)	(1,0)	(1,0)	
L1D -79>	(62,51)	(1,29)	(61,59)	(0,13)	(-216,1)	(79,10)	(-145,1)	(481,1)	(75,68)	(140,1)	(-84,1)	(355,3)	(-222,2)	(2,4)	(99,7)	(334,1)	
L1D -78>	(0,63)	(-13,0)	(60,95)	(89,2)	(98,17)	(99,9)	(113,3)	(-1,1)	(83,0)	(374,0)	(87,8)	(67,0)	(24,0)	(79,0)	(1,0)	(1,0)	
L1D -77>	(-112,1)	(1,67)	(0,8)	(-4,1)	(78,8)	(77,6)	(346,1)	(231,1)	(182,1)	(-142,1)	(116,1)	(164,1)	(20,1)	(120,1)	(64,1)	(57,1)	
L1D -76>	(1,12)	(0,21)	(92,1)	(2,12)	(116,1)	(16,1)	(178,1)	(76,5)	(28,1)	(83,4)	(77,3)	(-1,1)	(-9,1)	(82,15)	(47,10)	(134,1)	
L1D -75>	(0,89)	(1,22)	(32,10)	(75,3)	(18,23)	(360,0)	(170,0)	(76,2)	(128,0)	(-104,0)	(140,0)	(-1,0)	(-86,0)	(416,0)	(33,0)	(-103,0)	
L1D -74>	(1,7)	(17,102)	(2,1)	(0,8)	(103,0)	(26,3)	(67,0)	(33,0)	(75,0)	(76,0)	(483,0)	(-1,5)	(74,4)	(132,0)	(-124,0)	(5,0)	
L1D -73>	(221,1)	(0,8)	(1,36)	(438,1)	(126,1)	(74,2)	(2,2)	(67,12)	(3,7)	(48,1)	(228,1)	(73,31)	(16,3)	(366,1)	(124,1)	(6,1)	
L1D -72>	(18,17)	(-4,54)	(0,13)	(1,8)	(76,1)	(73,30)	(2,3)	(72,7)	(216,1)	(61,1)	(255,1)	(6,1)	(-23,1)	(103,1)	(-103,1)	(71,1)	
L1D -71>	(76,13)	(1,9)	(32,2)	(70,1)	(-116,1)	(71,8)	(-234,1)	(116,1)	(-6,1)	(61,1)	(124,6)	(117,11)	(0,5)	(33,1)	(3,1)	(146,1)	
L1D -70>	(1,2)	(0,1)	(-85,104)	(-222,0)	(71,2)	(124,0)	(130,0)	(99,0)	(70,2)	(-103,0)	(1,0)	(1,0)	(1,0)	(1,0)	(1,0)	(1,0)	
L1D -69>	(22,89)	(1,3)	(70,0)	(69,0)	(76,0)	(-308,0)	(-262,0)	(-85,44)	(0,1)	(-1,0)	(5,0)	(2,0)	(296,0)	(1,0)	(1,0)	(1,0)	
L1D -68>	(1,3)	(0,7)	(2,1)	(32,0)	(65,0)	(254,0)	(-20,2)	(22,85)	(5,0)	(68,1)	(376,0)	(485,0)	(503,0)	(74,0)	(69,1)	(1,0)	
L1D -67>	(1,66)	(-7,1)	(2,3)	(67,26)	(3,12)	(0,12)	(168,1)	(61,17)	(68,5)	(-16,1)	(-291,1)	(-9,2)	(198,1)	(146,1)	(-206,1)	(66,1)	
L1D -66>	(-45,124)	(62,1)	(67,11)	(0,1)	(66,2)	(156,1)	(1,4)	(154,1)	(1,0)	(1,0)	(1,0)	(1,0)	(1,0)	(1,0)	(1,0)	(1,0)	
L1D -65>	(1,24)	(6,9)	(2,6)	(5,2)	(65,21)	(0,8)	(118,5)	(158,1)	(246,1)	(59,25)	(3,12)	(24,3)	(66,9)	(150,1)	(-55,1)	(-290,1)	
L1D -64>	(1,13)	(-170,1)	(64,6)	(65,47)	(69,16)	(0,19)	(70,2)	(99,1)	(2,5)	(58,2)	(-4,28)	(194,1)	(56,1)	(-222,1)	(63,1)	(28,1)	
L1D -63>	(108,3)	(1,6)	(0,14)	(128,5)	(116,6)	(60,1)	(156,2)	(416,1)	(191,1)	(63,18)	(368,1)	(64,5)	(124,1)	(44,1)	(100,2)	(107,1)	
L1D -62>	(0,99)	(-18,4)	(2,4)	(68,6)	(18,2)	(56,1)	(8,12)	(1,8)	(154,2)	(62,7)	(-23,28)	(36,1)	(63,7)	(60,1)	(69,1)	(374,1)	
L1D -61>	(1,117)	(100,1)	(79,1)	(257,1)	(5,1)	(99,6)	(0,0)	(115,0)	(1,0)	(1,0)	(1,0)	(1,0)	(1,0)	(1,0)	(1,0)	(1,0)	
L1D -60>	(60,80)	(-1,10)	(97,0)	(99,29)	(0,32)	(128,0)	(-168,0)	(392,0)	(66,0)	(1,0)	(1,0)	(1,0)	(1,0)	(1,0)	(1,0)	(1,0)	
L1D -59>	(1,73)	(60,2)	(0,10)	(5,1)	(-269,1)	(59,20)	(-104,1)	(116,2)	(3,4)	(40,1)	(402,1)	(177,1)	(2,1)	(168,1)	(4,2)	(-58,1)	
L1D -58>	(58,16)	(402,1)	(-4,27)	(-27,1)	(5,2)	(1,5)	(0,21)	(59,10)	(-16,1)	(70,1)	(-56,1)	(174,2)	(-240,1)	(-117,1)	(4,3)	(18,1)	
L1D -57>	(223,1)	(57,67)	(-1,6)	(58,7)	(-10,3)	(62,1)	(446,1)	(-138,0)	(5,0)	(0,0)	(-104,0)	(1,0)	(2,0)	(-260,0)	(53,0)	(-58,0)	
L1D -56>	(0,1)	(-29,2)	(1,1)	(-4,4)	(56,31)	(62,3)	(6,19)	(-8,0)	(45,78)	(16,2)	(264,0)	(57,1)	(144,0)	(33,7)	(44,0)	(28,0)	
L1D -55>	(45,72)	(1,87)	(108,3)	(0,10)	(56,10)	(55,23)	(62,5)	(167,1)	(-1,2)	(-228,1)	(54,1)	(144,1)	(-104,1)	(156,2)	(100,3)	(216,1)	
L1D -54>	(1,60)	(-2,7)	(223,80)	(0,3)	(-23,6)	(55,2)	(6,0)	(5,1)	(86,0)	(54,5)	(53,0)	(110,0)	(16,0)	(-111,0)	(37,0)	(107,0)	
L1D -53>	(0,9)	(1,60)	(53,73)	(223,5)	(20,7)	(159,2)	(5,2)	(2,7)	(54,18)	(414,1)	(-228,1)	(360,1)	(-230,1)	(48,1)	(119,1)	(6,1)	
L1D -52>	(-26,101)	(-50,3)	(52,4)	(24,9)	(155,5)	(-103,1)	(156,4)	(26,0)	(0,0)	(158,0)	(1,1)	(53,0)	(194,0)	(5,0)	(-39,0)	(1,0)	
L1D -51>	(52,112)	(6,20)	(1,4)	(155,53)	(18,1)	(26,3)	(51,19)	(-219,1)	(5,3)	(0,1)	(234,0)	(-2,0)	(60,3)	(-260,1)	(68,0)	(-26,2)	
L1D -50>	(0,24)	(285,2)	(1,5)	(113,1)	(97,106)	(24,8)	(19,1)	(17,2)	(55,8)	(51,10)	(4,49)	(165,1)	(50,46)	(60,2)	(-220,1)	(18,2)	
L1D -49>	(19,8)	(1,19)	(49,45)	(48,3)	(50,36)	(5,1)	(2,14)	(-230,1)	(18,20)	(147,1)	(56,82)	(-232,2)	(29,7)	(16,2)	(61,1)	(0,12)	
L1D -48>	(17,21)	(47,14)	(7,34)	(18,17)	(49,46)	(22,8)	(1,8)	(48,24)	(0,9)	(52,4)	(6,4)	(113,2)	(9,4)	(37,1)	(-103,1)	(-29,15)	
L1D -47>	(0,9)	(55,0)	(47,68)	(5,0)	(-103,0)	(14,0)	(48,0)	(116,0)	(1,0)	(1,0)	(1,0)	(1,0)	(1,0)	(1,0)	(1,0)	(1,0)	
L1D -46>	(26,1)	(45,75)	(44,32)	(56,11)	(93,14)	(-4,14)	(0,0)	(204,0)	(3,0)	(-2,0)	(47,1)	(4,0)	(287,0)	(1,1)	(1,0)	(1,0)	
L1D -45>	(93,124)	(1,11)	(98,1)	(282,1)	(-216,1)	(72,3)	(45,2)	(4,0)	(2,3)	(46,4)	(44,1)	(0,2)	(-244,1)	(260,1)	(-220,0)	(1,0)	
L1D -44>	(113,2)	(24,3)	(91,2)	(-23,11)	(-12,1)	(0,18)	(1,20)	(-18,2)	(-9,1)	(43,33)	(50,1)	(45,44)	(56,80)	(19,22)	(44,16)	(293,3)	
L1D -43>	(1,15)	(-12,9)	(-13,19)	(44,2)	(43,4)	(70,5)	(6,3)	(-7,101)	(-104,1)	(48,0)	(-10,4)	(5,0)	(2,2)	(23,0)	(-11,1)	(0,1)	
L1D -42>	(-43,4)	(42,5)	(33,114)	(43,4)	(70,1)	(-12,1)	(26,2)	(-124,1)	(-232,1)	(30,2)	(-423,1)	(6,41)	(0,1)	(170,5)	(-35,1)	(91,1)	
L1D -41>	(5,16)	(2,44)	(42,16)	(41,43)	(1,20)	(6,80)	(-236,3)	(8,32)	(28,9)	(86,1)	(0,7)	(-216,3)	(-196,4)	(29,6)	(170,9)	(46,17)	
L1D -40>	(-16,67)	(41,1)	(17,0)	(3,2)	(0,7)	(14,1)	(6,0)	(1,0)	(-236,0)	(18,0)	(40,0)	(1,0)	(1,0)	(1,0)	(1,0)	(1,0)	
L1D -39>	(38,5)	(0,34)	(1,2)	(29,1)	(50,116)	(-29,1)	(2,4)	(18,1)	(40,3)	(-60,1)	(41,1)	(39,2)	(3,3)	(-187,2)	(6,4)	(45,1)	
L1D -38>	(18,1)	(36,106)	(38,19)	(37,1)	(-212,1)	(39,1)	(-60,2)	(0,1)	(5,0)	(103,0)	(2,4)	(-29,1)	(72,0)	(1,0)	(105,0)	(24,0)	
L1D -37>	(37,28)	(1,44)	(19,17)	(2,12)	(196,118)	(0,7)	(6,9)	(48,1)	(36,3)	(5,1)	(38,8)	(41,3)	(121,1)	(24,2)	(17,10)	(-104,1)	
L1D -36>	(3,3)	(38,78)	(-224,0)	(1,3)	(2,0)	(36,60)	(101,1)	(5,0)	(117,0)	(27,1)	(37,5)	(0,1)	(141,0)	(-1,0)	(103,1)	(187,0)	
L1D -35>	(-81,22)	(35,23)	(1,15)	(-82,68)	(-80,29)	(14,0)	(6,1)	(33,0)	(-78,4)	(9,0)	(42,4)	(-433,0)	(0,0)	(36,0)	(1,0)	(1,0)	
L1D -34>	(0,27)	(-1,28)	(34,3)	(-70,1)	(36,54)	(-14,2)	(1,7)	(106,1)	(38,15)	(35,9)	(26,115)	(-3,2)	(-35,1)	(-43,9)	(3,2)	(107,1)	
L1D -33>	(28,10)	(19,73)	(-216,2)	(2,6)	(-248,2)	(26,2)	(0,22)	(30,3)	(33,28)	(-11,0)	(180,16)	(1,1)	(50,6)	(20,8)	(46,16)	(34,1)	
L1D -32>	(33,3)	(1,18)	(0,24)	(102,12)	(-14,89)	(295,1)	(2,3)	(28,17)	(-24,2)	(19,1)	(44,1)	(32,3)	(-132,1)	(26,1)	(-280,1)	(39,2)	
L1D -31>	(0,24)	(-14,101)	(-31,2)	(417,21)	(-17,3)	(5,4)	(4,22)	(-54,9)	(41,1)	(32,2)	(-49,2)	(-25,4)	(-23,6)	(9,10)	(-10,55)	(31,3)	
L1D -30>	(6,100)	(3,92)	(-5,1)	(2,3)	(0,7)	(1,17)	(-2,13)	(280,7)	(18,12)	(292,3)	(256,5)	(44,93)	(16,1)	(4,8)	(99,9)	(30,9)	
L1D -29>	(29,7)	(30,6)	(2,2)	(-196,1)	(43,40)	(1,65)	(0,6)	(-1,17)	(26,113)	(6,40)	(-14,2)	(34,3)	(-240,1)	(16,2)	(3,6)	(-216,2)	
L1D -28>	(2,122)	(105,1)	(32,9)	(28,11)	(-14,4)	(-26,2)	(56,9)	(10,68)	(1,1)	(25,21)	(-1,1)	(5,1)	(34,1)	(24,4)	(0,3)	(256,9)	
L1D -27>	(27,47)	(1,61)	(0,1)	(40,70)	(4,4)	(-1,0)	(16,1)	(28,1)	(33,1)	(2,0)	(7,0)	(-60,0)	(9,0)	(1,0)	(1,0)	(1,0)	
L1D -26>	(33,104)	(3,1)	(180,18)	(-13,33)	(28,16)	(1,22)	(35,40)	(6,36)	(-14,11)	(0,15)	(25,29)	(19,45)	(5,4)	(26,8)	(45,22)	(34,14)	
L1D -25>	(1,91)	(0,2)	(41,43)	(19,1)	(21,0)	(-37,0)	(-57,1)	(26,35)	(18,2)	(-29,0)	(-52,0)	(5,0)	(25,6)	(6,0)	(4,1)	(77,2)	
L1D -24>	(13,3)	(33,14)	(0,54)	(23,4)	(24,7)	(99,5)	(1,68)	(25,6)	(6,7)	(198,1)	(22,1)	(3,3)	(19,7)	(-61,1)	(113,2)	(18,2)	
L1D -23>	(3,38)	(1,36)	(2,51)	(0,91)	(22,73)	(23,29)	(-12,8)	(-49,1)	(-11,1)	(-54,2)	(-7,34)	(-10,1)	(-13,10)	(-6,1)	(5,2)	(27,1)	
L1D -22>	(2,25)	(0,9)	(-5,1)	(250,122)	(-6,19)	(25,7)	(28,1)	(27,1)	(7,5)	(17,0)	(1,16)	(22,3)	(13,3)	(5,0)	(23,4)	(-3,3)	
L1D -21>	(1,41)	(-78,121)	(9,7)	(0,6)	(41,1)	(-446,0)	(-231,0)	(21,87)	(23,0)	(17,10)	(47,0)	(-4,11)	(-2,2)	(22,2)	(11,1)	(-3,16)	
L1D -20>	(1,67)	(3,4)	(6,21)	(0,88)	(9,1)	(24,13)	(19,28)	(-4,2)	(26,32)	(-35,1)	(20,73)	(13,42)	(239,1)	(23,31)	(-78,5)	(259,1)	
L1D -19>	(1,59)	(217,0)	(25,1)	(19,12)	(-12,5)	(-13,12)	(-268,0)	(-7,71)	(20,0)	(-1,1)	(-4,9)	(26,2)	(41,2)	(-6,0)	(28,1)	(0,1)	
L1D -18>	(22,17)	(1,83)	(-5,20)	(256,1)	(-3,122)	(2,44)	(4,18)	(-1,35)	(-6,18)	(-35,13)	(50,12)	(9,5)	(38,12)	(10,7)	(75,7)	(39,10)	
L1D -17>	(16,43)	(-1,1)	(0,5)	(-8,0)	(1,66)	(-91,10)	(14,0)	(-37,0)	(2,2)	(-7,5)	(17,1)	(34,0)	(18,0)	(12,12)	(56,1)	(30,3)	
L1D -16>	(16,112)	(1,6)	(7,4)	(17,1)	(-7,2)	(-26,1)	(-5,13)	(56,1)	(-3,30)	(-83,32)	(30,0)	(-2,0)	(-4,0)	(2,2)	(0,1)	(14,1)	
L1D -15>	(1,71)	(16,7)	(31,121)	(-5,10)	(41,4)	(3,5)	(0,5)	(-248,1)	(-51,4)	(15,8)	(-36,1)	(-286,1)	(-84,1)	(-254,3)	(2,3)	(368,1)	
L1D -14>	(-16,12)	(-4,4)	(-26,44)	(6,113)	(14,17)	(2,3)	(0,28)	(1,66)	(26,10)	(9,18)	(142,1)	(249,0)	(-166,0)	(18,0)	(24,0)	(-14,59)	
L1D -13>	(4,1)	(-5,95)	(12,18)	(11,10)	(13,8)	(19,4)	(1,125)	(24,2)	(0,13)	(194,1)	(-6,30)	(195,1)	(14,4)	(38,1)	(-11,4)	(20,6)	
L1D -12>	(-108,1)	(1,32)	(-105,35)	(12,81)	(11,17)	(10,19)	(4,56)	(13,22)	(3,2)	(38,9)	(5,23)	(6,16)	(-98,5)	(0,9)	(9,7)	(-87,2)	
L1D -11>	(0,28)	(-98,0)	(-35,1)	(-9,13)	(1,54)	(-16,1)	(11,5)	(-1,5)	(9,6)	(-8,1)	(13,17)	(-7,86)	(-13,7)	(-2,0)	(4,0)	(-12,1)	
L1D -10>	(2,5)	(-98,43)	(117,45)	(1,4)	(7,37)	(0,112)	(11,1)	(-89,1)	(4,1)	(28,50)	(10,39)	(41,1)	(-7,18)	(-46,38)	(3,33)	(-4,1)	
L1D -9>	(13,6)	(9,8)	(12,89)	(117,4)	(-54,0)	(-18,0)	(-23,0)	(-77,0)	(1,1)	(0,1)	(19,1)	(287,0)	(-8,0)	(233,0)	(-61,0)	(2,0)	
L1D -8>	(2,115)	(416,1)	(115,127)	(4,45)	(7,3)	(0,21)	(-18,80)	(-53,4)	(1,108)	(-10,3)	(-26,46)	(9,19)	(6,10)	(8,22)	(-23,2)	(-77,4)	
L1D -7>	(7,18)	(0,23)	(154,1)	(1,71)	(-26,13)	(16,2)	(123,1)	(53,1)	(28,0)	(14,1)	(-5,7)	(8,0)	(-30,3)	(-19,0)	(-29,0)	(6,2)	
L1D -6>	(5,1)	(1,105)	(-56,2)	(33,17)	(-30,5)	(-24,7)	(265,4)	(-11,2)	(-7,7)	(6,18)	(7,5)	(3,6)	(-3,6)	(-449,2)	(-12,7)	(153,5)	
L1D -5>	(0,31)	(10,48)	(-3,1)	(-103,55)	(7,21)	(1,112)	(-4,2)	(5,65)	(19,9)	(6,3)	(-2,3)	(11,2)	(-250,3)	(-245,9)	(-251,7)	(-341,4)	
L1D -4>	(0,66)	(4,111)	(-167,4)	(1,41)	(-1,11)	(6,7)	(-171,2)	(-2,3)	(3,31)	(-3,2)	(2,4)	(-168,13)	(170,2)	(341,6)	(28,1)	(97,3)	
L1D -3>	(1,43)	(-4,5)	(0,99)	(-132,1)	(-9,48)	(6,6)	(-2,9)	(3,30)	(4,3)	(2,15)	(-3,8)	(-20,2)	(-7,15)	(5,1)	(22,15)	(204,1)	
L1D -2>	(1,42)	(24,9)	(0,20)	(12,2)	(2,64)	(-14,6)	(7,1)	(5,1)	(147,1)	(-34,1)	(-11,9)	(-108,1)	(-36,4)	(-87,3)	(3,2)	(-2,1)	
L1D -1>	(1,111)	(0,33)	(-5,7)	(-10,1)	(11,4)	(87,1)	(-16,2)	(2,1)	(39,1)	(100,3)	(61,2)	(-1,14)	(12,9)	(98,4)	(-3,25)	(86,4)	
L1D 0>	(0,94)	(-9,3)	(5,1)	(-7,1)	(2,1)	(12,1)	(-99,1)	(32,1)	(-10,1)	(-20,1)	(-22,1)	(28,1)	(11,1)	(7,1)	(1,1)	(306,1)	
L1D 1>	(-5,3)	(0,3)	(7,4)	(9,1)	(-3,5)	(1,122)	(2,11)	(-18,1)	(-7,1)	(3,2)	(-6,2)	(-16,1)	(84,1)	(-17,1)	(-222,1)	(-1,5)	
L1D 2>	(1,103)	(-5,6)	(-2,35)	(17,1)	(-38,17)	(-12,1)	(18,6)	(-7,22)	(-3,3)	(-28,2)	(2,3)	(-68,0)	(-13,4)	(0,4)	(5,1)	(7,1)	
L1D 3>	(-3,64)	(1,54)	(6,45)	(-2,1)	(0,8)	(-10,5)	(3,3)	(5,3)	(10,6)	(-26,1)	(-4,1)	(-49,1)	(17,4)	(-12,1)	(-1,4)	(114,1)	
L1D 4>	(-4,90)	(-30,8)	(0,23)	(9,2)	(-277,10)	(86,3)	(17,3)	(4,2)	(-1,32)	(7,1)	(93,1)	(1,2)	(-47,9)	(10,4)	(6,2)	(-7,3)	
L1D 5>	(-5,86)	(6,19)	(13,5)	(-4,5)	(7,6)	(1,108)	(85,13)	(0,6)	(-1,15)	(140,5)	(12,2)	(-3,7)	(3,3)	(341,4)	(17,3)	(477,1)	
L1D 6>	(-174,28)	(1,82)	(0,2)	(27,2)	(169,4)	(20,22)	(-20,2)	(18,6)	(173,3)	(-25,1)	(8,1)	(36,1)	(-6,30)	(-3,10)	(12,17)	(13,1)	
L1D 7>	(-7,61)	(0,95)	(-1,113)	(1,82)	(259,1)	(-6,45)	(13,5)	(2,12)	(12,7)	(-10,43)	(-2,7)	(-33,33)	(139,1)	(-42,27)	(-4,21)	(-26,15)	
L1D 8>	(1,98)	(0,28)	(-10,0)	(3,4)	(-34,6)	(-7,0)	(-20,7)	(15,2)	(16,0)	(-3,0)	(-8,0)	(20,0)	(92,0)	(4,0)	(-254,0)	(1,0)	
L1D 9>	(1,121)	(0,23)	(3,12)	(255,3)	(-9,14)	(-8,13)	(11,4)	(-87,17)	(-3,10)	(18,1)	(-33,5)	(7,3)	(12,2)	(-7,15)	(-42,12)	(-2,10)	
L1D 10>	(0,85)	(1,34)	(-9,15)	(8,41)	(-10,10)	(255,2)	(7,15)	(-12,5)	(-56,2)	(-108,5)	(144,11)	(-8,25)	(-11,20)	(-3,3)	(-6,7)	(2,1)	
L1D 11>	(-1,17)	(2,10)	(1,87)	(-7,103)	(-20,48)	(-2,39)	(22,3)	(26,9)	(-10,41)	(-12,23)	(-110,4)	(7,13)	(0,13)	(21,1)	(9,9)	(-11,12)	
L1D 12>	(-3,89)	(4,1)	(24,2)	(-13,0)	(1,8)	(-2,7)	(-11,1)	(-409,0)	(-12,5)	(-6,7)	(-10,6)	(26,5)	(8,1)	(-56,2)	(-20,3)	(0,3)	
L1D 13>	(7,100)	(-1,19)	(-2,31)	(25,8)	(0,13)	(-10,3)	(1,6)	(2,1)	(-13,11)	(93,1)	(26,4)	(-24,1)	(11,2)	(-12,2)	(28,1)	(17,5)	
L1D 14>	(26,72)	(27,5)	(-13,2)	(2,4)	(-9,5)	(-2,1)	(11,6)	(-14,22)	(28,2)	(0,2)	(20,2)	(6,2)	(1,2)	(-25,2)	(-90,1)	(30,0)	
L1D 15>	(-2,1)	(1,2)	(0,15)	(26,2)	(29,1)	(-273,1)	(22,1)	(313,92)	(-15,5)	(17,2)	(20,2)	(30,4)	(106,1)	(-251,0)	(-10,8)	(32,1)	
L1D 16>	(-2,7)	(14,63)	(1,88)	(40,8)	(-16,1)	(30,0)	(0,22)	(-223,0)	(-32,3)	(-18,0)	(32,1)	(31,1)	(-36,2)	(-15,2)	(7,3)	(-17,0)	
L1D 17>	(-6,63)	(-31,28)	(-17,6)	(24,4)	(-1,0)	(-54,4)	(-3,44)	(-20,74)	(33,3)	(-23,61)	(-10,2)	(-18,16)	(-30,12)	(57,6)	(34,3)	(-11,6)	
L1D 18>	(-78,34)	(21,120)	(-19,7)	(-6,36)	(45,4)	(5,3)	(26,10)	(-3,4)	(0,111)	(11,10)	(1,1)	(17,19)	(-18,95)	(-23,12)	(32,3)	(-24,9)	
L1D 19>	(-18,8)	(250,1)	(0,43)	(1,71)	(-176,1)	(-17,5)	(240,3)	(-6,4)	(-19,8)	(204,2)	(232,1)	(220,3)	(212,1)	(7,9)	(258,1)	(-80,3)	
L1D 20>	(42,1)	(0,38)	(-6,34)	(-20,125)	(40,3)	(8,10)	(-26,69)	(3,7)	(-98,2)	(248,2)	(-18,8)	(-38,4)	(154,2)	(-1,7)	(7,2)	(6,5)	
L1D 21>	(-20,3)	(0,5)	(1,1)	(-18,69)	(-3,30)	(11,40)	(-99,80)	(-23,44)	(-8,6)	(-1,2)	(7,94)	(-19,8)	(-21,80)	(42,3)	(-39,25)	(-17,30)	
L1D 22>	(306,23)	(-66,20)	(-108,34)	(-111,3)	(2,0)	(-22,2)	(-16,48)	(-24,4)	(44,1)	(3,0)	(0,1)	(-21,1)	(9,20)	(-19,6)	(-88,0)	(146,70)	
L1D 23>	(-25,1)	(0,20)	(48,1)	(-23,114)	(1,1)	(-21,1)	(-3,5)	(4,3)	(46,1)	(-238,0)	(5,0)	(-36,0)	(-29,2)	(45,2)	(-358,0)	(-295,0)	
L1D 24>	(146,126)	(1,11)	(-24,97)	(-20,19)	(32,102)	(0,81)	(-18,41)	(9,56)	(29,101)	(-21,28)	(79,1)	(50,6)	(47,2)	(33,5)	(48,19)	(-23,5)	
L1D 25>	(16,1)	(-27,113)	(3,0)	(-4,0)	(-25,43)	(-2,0)	(52,9)	(0,0)	(50,4)	(-3,2)	(49,5)	(17,1)	(4,0)	(1,3)	(1,0)	(1,0)	
L1D 26>	(-40,91)	(-28,24)	(1,9)	(2,41)	(9,2)	(51,18)	(-25,38)	(-3,6)	(-20,29)	(-4,23)	(52,105)	(6,14)	(-7,2)	(-26,55)	(8,3)	(7,2)	
L1D 27>	(-23,117)	(-246,4)	(56,1)	(2,14)	(53,9)	(-39,10)	(54,9)	(6,2)	(-2,2)	(7,8)	(-33,4)	(-82,13)	(-27,48)	(9,24)	(13,4)	(-11,9)	
L1D 28>	(228,2)	(-28,94)	(17,24)	(-14,82)	(-21,12)	(-26,14)	(-39,2)	(-27,120)	(-25,4)	(58,1)	(28,42)	(-54,42)	(4,64)	(56,1)	(80,1)	(147,7)	
L1D 29>	(17,2)	(1,6)	(3,1)	(-246,2)	(-28,69)	(-39,5)	(10,2)	(-2,1)	(24,1)	(-29,2)	(-278,1)	(58,1)	(0,2)	(-252,1)	(-227,0)	(6,0)	
L1D 30>	(58,2)	(1,10)	(-1,3)	(-182,1)	(0,14)	(-30,24)	(16,68)	(59,5)	(26,59)	(-2,2)	(-29,4)	(-252,1)	(60,14)	(4,4)	(2,2)	(62,5)	
L1D 31>	(-82,1)	(4,4)	(0,3)	(61,3)	(-1,1)	(7,112)	(9,33)	(-31,3)	(-41,2)	(64,2)	(17,3)	(-29,1)	(-2,3)	(6,5)	(62,5)	(242,1)	
L1D 32>	(0,5)	(66,1)	(1,1)	(-32,15)	(70,114)	(-4,3)	(20,1)	(-31,1)	(-56,20)	(-2,3)	(64,3)	(-30,17)	(-26,0)	(-18,0)	(-7,1)	(63,1)	
L1D 33>	(-7,107)	(2,22)	(-33,62)	(0,49)	(9,102)	(175,7)	(211,10)	(231,3)	(277,6)	(-31,14)	(265,2)	(269,7)	(80,2)	(-305,1)	(245,11)	(213,1)	
L1D 34>	(-33,2)	(70,3)	(5,1)	(67,3)	(-8,85)	(-2,4)	(-28,4)	(-1,1)	(0,4)	(3,5)	(1,2)	(-34,3)	(68,5)	(-3,2)	(-67,1)	(17,6)	
L1D 35>	(-116,19)	(-223,1)	(-35,4)	(-117,58)	(-15,1)	(7,123)	(-115,21)	(1,1)	(72,1)	(4,2)	(69,1)	(5,3)	(-113,5)	(-20,2)	(-254,1)	(70,3)	
L1D 36>	(-256,1)	(-16,4)	(2,107)	(-7,29)	(-36,78)	(-35,1)	(-2,1)	(-20,1)	(128,9)	(4,0)	(72,4)	(-223,0)	(17,0)	(7,0)	(5,1)	(1,1)	
L1D 37>	(-37,27)	(7,2)	(0,6)	(-7,9)	(-99,1)	(159,113)	(-20,16)	(74,6)	(17,3)	(-1,11)	(2,2)	(1,2)	(73,2)	(-36,1)	(-2,3)	(-241,1)	
L1D 38>	(-24,2)	(12,15)	(0,96)	(-30,16)	(1,34)	(52,11)	(-98,17)	(-25,1)	(386,1)	(-2,61)	(252,1)	(234,2)	(-100,1)	(75,0)	(-8,0)	(-29,0)	
L1D 39>	(11,119)	(-99,25)	(53,1)	(-30,16)	(-10,1)	(226,1)	(-1,5)	(2,2)	(4,0)	(80,0)	(-124,0)	(240,0)	(-21,46)	(-46,0)	(-2,3)	(78,0)	
L1D 40>	(-34,4)	(-40,2)	(-32,1)	(-39,1)	(386,111)	(-26,12)	(0,1)	(80,1)	(-52,0)	(5,1)	(82,0)	(-84,0)	(79,0)	(-60,0)	(168,0)	(1,0)	
L1D 41>	(-1,2)	(-258,1)	(7,115)	(81,1)	(2,8)	(0,2)	(386,7)	(-281,1)	(6,7)	(-2,1)	(-41,2)	(-93,1)	(-274,0)	(3,1)	(82,1)	(5,0)	
L1D 42>	(5,22)	(128,24)	(-26,5)	(-12,19)	(86,13)	(17,17)	(1,18)	(0,23)	(4,3)	(-28,8)	(-16,6)	(82,1)	(84,26)	(-42,38)	(-88,1)	(-134,2)	
L1D 43>	(5,33)	(17,10)	(-43,52)	(1,113)	(2,73)	(12,29)	(86,19)	(88,5)	(85,21)	(0,12)	(-66,1)	(-1,19)	(-26,3)	(-20,17)	(-267,1)	(11,105)	
L1D 44>	(11,26)	(105,1)	(0,2)	(51,1)	(2,5)	(1,70)	(88,1)	(-138,0)	(86,0)	(5,0)	(90,0)	(-86,0)	(87,0)	(12,8)	(4,1)	(-44,2)	
L1D 45>	(89,1)	(10,1)	(-9,82)	(-26,0)	(48,2)	(0,0)	(27,3)	(376,0)	(-45,2)	(-1,54)	(-44,2)	(3,0)	(90,1)	(11,26)	(-31,25)	(4,2)	
L1D 46>	(47,87)	(-50,52)	(-45,2)	(-46,8)	(1,2)	(-32,87)	(92,5)	(2,1)	(81,1)	(4,6)	(-1,0)	(-4,1)	(91,4)	(94,3)	(241,0)	(0,4)	
L1D 47>	(-4,76)	(1,7)	(0,4)	(-97,9)	(96,0)	(-9,1)	(-1,0)	(87,0)	(2,1)	(48,0)	(-47,0)	(29,1)	(94,0)	(65,2)	(-146,0)	(3,0)	
L1D 48>	(-93,56)	(1,33)	(-2,18)	(-4,15)	(2,4)	(96,44)	(3,21)	(-47,13)	(0,32)	(-266,1)	(12,6)	(95,10)	(5,3)	(98,19)	(-48,51)	(-34,10)	
L1D 49>	(1,26)	(5,15)	(97,26)	(-49,79)	(-18,2)	(0,15)	(7,2)	(54,1)	(98,46)	(-285,1)	(-20,9)	(-9,1)	(16,1)	(4,3)	(-2,1)	(100,6)	
L1D 50>	(98,2)	(1,1)	(21,122)	(-5,0)	(-7,36)	(0,3)	(2,9)	(28,2)	(-2,28)	(-49,3)	(99,6)	(-110,18)	(-50,17)	(100,19)	(-12,18)	(4,0)	
L1D 51>	(1,4)	(104,74)	(-51,19)	(5,2)	(101,3)	(0,2)	(102,4)	(4,1)	(2,1)	(-59,0)	(-284,0)	(1,0)	(1,0)	(1,0)	(1,0)	(1,0)	
L1D 52>	(103,10)	(106,0)	(5,0)	(1,2)	(0,0)	(4,2)	(-100,0)	(104,97)	(-51,9)	(-52,3)	(210,0)	(-78,0)	(20,0)	(2,0)	(1,0)	(1,0)	
L1D 53>	(1,25)	(4,33)	(0,31)	(170,46)	(106,45)	(-146,8)	(108,6)	(-53,36)	(95,2)	(105,14)	(2,21)	(-2,3)	(85,6)	(-144,3)	(57,1)	(-51,1)	
L1D 54>	(2,4)	(1,20)	(20,5)	(5,7)	(108,47)	(110,4)	(0,23)	(-54,37)	(106,5)	(72,1)	(107,18)	(26,1)	(-53,15)	(-116,1)	(-70,1)	(-36,1)	
L1D 55>	(-1,123)	(-11,19)	(1,20)	(-2,12)	(5,5)	(112,5)	(3,21)	(-55,18)	(109,5)	(2,4)	(110,22)	(-274,1)	(0,13)	(342,1)	(29,2)	(-288,1)	
L1D 56>	(-11,110)	(110,1)	(250,1)	(-56,2)	(-26,5)	(-40,8)	(-55,2)	(321,1)	(112,1)	(6,1)	(-28,4)	(-413,0)	(203,0)	(-60,0)	(0,3)	(-54,14)	
L1D 57>	(-7,0)	(-57,123)	(171,0)	(-75,20)	(4,0)	(-5,0)	(6,0)	(113,0)	(0,2)	(114,2)	(29,0)	(242,0)	(1,0)	(1,0)	(1,0)	(1,0)	
L1D 58>	(115,13)	(170,45)	(-62,13)	(-56,11)	(1,8)	(-114,2)	(-58,26)	(116,24)	(0,17)	(118,8)	(114,4)	(3,2)	(-57,20)	(-1,1)	(192,1)	(5,4)	
L1D 59>	(1,11)	(-59,16)	(54,1)	(117,9)	(120,4)	(-56,25)	(118,18)	(3,2)	(-63,1)	(5,3)	(-1,3)	(-20,1)	(2,1)	(-39,3)	(17,1)	(0,7)	
L1D 60>	(39,96)	(-60,123)	(38,56)	(18,47)	(295,0)	(-61,46)	(29,0)	(5,0)	(120,0)	(321,1)	(-352,1)	(0,4)	(-58,0)	(1,0)	(1,0)	(1,0)	
L1D 61>	(39,66)	(-60,104)	(38,55)	(2,1)	(18,7)	(0,2)	(1,2)	(-61,3)	(124,2)	(50,1)	(-58,1)	(37,26)	(-63,1)	(122,1)	(5,0)	(-23,2)	
L1D 62>	(-94,1)	(196,83)	(37,6)	(172,0)	(-61,1)	(-62,0)	(-6,0)	(40,0)	(166,0)	(-20,0)	(124,0)	(1,0)	(1,0)	(1,0)	(1,0)	(1,0)	
L1D 63>	(5,4)	(1,20)	(-31,1)	(-2,1)	(-63,12)	(64,1)	(-45,22)	(126,16)	(125,9)	(-59,1)	(0,9)	(128,7)	(179,1)	(17,1)	(-1,3)	(4,1)	
L1D 64>	(0,24)	(-63,10)	(-68,7)	(182,2)	(127,2)	(128,16)	(2,2)	(-1,1)	(-20,2)	(-42,1)	(5,2)	(1,10)	(19,6)	(48,2)	(-64,12)	(-66,1)	
L1D 65>	(5,22)	(1,10)	(-65,61)	(132,1)	(129,8)	(56,3)	(130,11)	(-1,2)	(4,1)	(18,1)	(2,4)	(-55,1)	(-28,17)	(40,1)	(0,5)	(-413,1)	
L1D 66>	(5,4)	(17,2)	(-20,22)	(-6,5)	(166,3)	(280,4)	(-66,18)	(132,19)	(0,12)	(1,11)	(40,6)	(-65,1)	(-61,1)	(-134,4)	(-64,17)	(131,9)	
L1D 67>	(0,9)	(5,10)	(-67,59)	(46,31)	(1,13)	(2,2)	(133,4)	(4,2)	(-10,4)	(93,4)	(136,3)	(-61,1)	(134,13)	(15,1)	(-64,12)	(68,9)	
L1D 68>	(126,1)	(114,95)	(5,1)	(136,1)	(-68,1)	(-28,0)	(-6,1)	(0,5)	(164,0)	(82,0)	(188,0)	(-383,0)	(-67,1)	(135,0)	(146,0)	(-380,0)	
L1D 69>	(1,11)	(93,12)	(-4,7)	(138,8)	(-2,13)	(46,82)	(5,6)	(3,24)	(0,12)	(-290,1)	(140,3)	(2,10)	(-69,6)	(-1,9)	(-8,1)	(-304,1)	
L1D 70>	(7,91)	(142,1)	(152,3)	(2,1)	(-139,0)	(0,3)	(138,0)	(140,3)	(9,17)	(-157,0)	(-70,3)	(6,33)	(-19,1)	(28,0)	(-122,0)	(139,0)	
L1D 71>	(93,13)	(46,71)	(5,2)	(-71,0)	(142,0)	(1,1)	(-4,9)	(276,0)	(17,1)	(141,0)	(218,0)	(18,0)	(29,0)	(3,0)	(-19,0)	(1,0)	
L1D 72>	(1,12)	(-20,7)	(13,4)	(-11,29)	(0,42)	(14,23)	(-296,9)	(-76,22)	(-322,1)	(321,6)	(-304,1)	(144,15)	(-71,5)	(-72,17)	(70,2)	(114,3)	
L1D 73>	(5,4)	(1,12)	(0,9)	(18,1)	(146,8)	(-73,47)	(145,10)	(-19,1)	(-7,3)	(2,3)	(148,1)	(6,1)	(-28,2)	(24,3)	(17,1)	(220,1)	
L1D 74>	(-74,21)	(-75,4)	(-20,5)	(-73,1)	(5,5)	(321,1)	(-1,1)	(-72,25)	(1,11)	(0,20)	(148,14)	(150,10)	(147,1)	(-52,3)	(94,3)	(146,2)	
L1D 75>	(-74,93)	(-75,73)	(-2,2)	(3,2)	(0,4)	(-76,1)	(18,6)	(150,4)	(2,1)	(68,3)	(30,1)	(-72,12)	(17,1)	(80,1)	(5,4)	(152,2)	
L1D 76>	(1,13)	(80,7)	(3,24)	(5,2)	(-2,12)	(154,5)	(0,16)	(152,10)	(-12,1)	(-76,9)	(-14,1)	(-19,6)	(151,6)	(-312,2)	(-1,5)	(-75,2)	
L1D 77>	(0,9)	(1,13)	(104,88)	(-81,2)	(154,8)	(17,1)	(-2,6)	(-77,9)	(3,6)	(24,1)	(156,5)	(-152,1)	(-20,4)	(2,3)	(16,2)	(-51,5)	
L1D 78>	(-78,89)	(11,1)	(20,6)	(-75,0)	(9,10)	(80,0)	(21,4)	(-18,17)	(-79,0)	(35,0)	(158,0)	(156,0)	(0,0)	(-77,0)	(155,0)	(6,0)	
L1D 79>	(20,11)	(-78,68)	(29,1)	(1,9)	(157,1)	(2,4)	(-79,5)	(158,5)	(0,3)	(14,4)	(4,1)	(-10,4)	(198,1)	(21,9)	(5,1)	(17,1)	
L1D 80>	(-81,25)	(35,43)	(-2,2)	(7,4)	(0,33)	(1,9)	(-184,6)	(-46,7)	(-20,13)	(108,2)	(6,31)	(-80,40)	(160,15)	(162,4)	(-320,1)	(-108,2)	
L1D 81>	(1,9)	(0,9)	(35,27)	(-82,51)	(-28,2)	(-79,1)	(-81,87)	(-80,44)	(161,6)	(162,7)	(-36,1)	(36,1)	(3,1)	(17,3)	(164,3)	(5,2)	
L1D 82>	(-82,49)	(-80,22)	(35,62)	(-36,20)	(-79,16)	(5,5)	(-20,11)	(-9,29)	(-102,6)	(0,9)	(242,1)	(-46,9)	(86,7)	(138,5)	(186,5)	(164,9)	
L1D 83>	(-83,9)	(1,9)	(-2,9)	(3,19)	(0,14)	(5,1)	(4,2)	(2,4)	(165,3)	(-1,7)	(-320,1)	(-7,2)	(-165,4)	(-413,1)	(-314,1)	(15,1)	
L1D 84>	(1,9)	(-4,94)	(2,4)	(-48,1)	(-1,0)	(171,0)	(-84,0)	(-175,1)	(166,0)	(-19,0)	(-260,0)	(-167,0)	(-49,0)	(1,0)	(1,0)	(1,0)	
L1D 85>	(1,87)	(-10,0)	(-85,1)	(5,1)	(-86,3)	(2,1)	(0,2)	(-94,0)	(17,0)	(-1,0)	(20,0)	(-7,0)	(11,0)	(-128,0)	(-283,0)	(-169,0)	
L1D 86>	(1,103)	(-90,111)	(256,15)	(37,1)	(28,2)	(0,2)	(5,1)	(-86,1)	(-92,0)	(-170,0)	(-171,2)	(-57,0)	(-106,0)	(-414,0)	(1,0)	(1,0)	
L1D 87>	(1,74)	(-87,66)	(2,1)	(-91,5)	(-172,1)	(5,1)	(11,3)	(0,1)	(-206,0)	(28,0)	(84,1)	(256,31)	(246,0)	(-173,0)	(3,0)	(-1,0)	
L1D 88>	(0,17)	(1,9)	(-196,1)	(2,1)	(70,1)	(-1,1)	(-88,17)	(-87,5)	(-52,1)	(-175,6)	(20,2)	(19,3)	(3,1)	(-34,1)	(5,1)	(-60,1)	
L1D 89>	(-89,17)	(-2,57)	(10,3)	(-11,96)	(1,10)	(3,1)	(201,1)	(17,0)	(0,4)	(-7,0)	(-176,0)	(-177,0)	(5,1)	(-98,0)	(2,1)	(28,0)	
L1D 90>	(-179,1)	(1,66)	(0,1)	(160,0)	(-86,0)	(3,0)	(-92,0)	(-90,1)	(-314,0)	(-2,0)	(-310,0)	(256,2)	(-1,1)	(1,0)	(1,0)	(1,0)	
L1D 91>	(84,111)	(5,1)	(-390,1)	(18,0)	(0,6)	(1,4)	(2,1)	(-410,1)	(-91,10)	(-180,0)	(1,0)	(1,0)	(1,0)	(1,0)	(1,0)	(1,0)	
L1D 92>	(-92,91)	(-10,1)	(1,6)	(6,1)	(-1,1)	(0,4)	(4,1)	(-36,0)	(-183,1)	(-91,1)	(3,1)	(23,0)	(-20,0)	(-228,0)	(1,0)	(1,0)	
L1D 93>	(-93,75)	(1,8)	(0,42)	(-97,24)	(-200,0)	(-68,1)	(-184,0)	(5,1)	(3,0)	(-185,0)	(24,0)	(-39,0)	(-1,0)	(1,0)	(1,0)	(1,0)	
L1D 94>	(0,27)	(1,19)	(-94,14)	(-2,2)	(-187,12)	(-194,1)	(-100,1)	(-93,5)	(5,8)	(14,1)	(176,1)	(16,1)	(-218,1)	(-186,2)	(-114,3)	(-276,1)	
L1D 95>	(1,12)	(5,5)	(-188,2)	(0,21)	(-189,11)	(24,2)	(-6,4)	(-55,1)	(128,1)	(-456,1)	(-95,13)	(18,9)	(2,4)	(364,1)	(-2,1)	(3,2)	
L1D 96>	(1,125)	(-3,22)	(-1,1)	(-189,1)	(-220,0)	(3,0)	(-96,5)	(0,7)	(258,0)	(-191,3)	(-95,3)	(-172,0)	(-2,1)	(-190,0)	(1,0)	(1,0)	
L1D 97>	(2,44)	(1,28)	(0,70)	(-192,1)	(5,2)	(3,2)	(12,107)	(-322,1)	(-193,2)	(-123,0)	(18,0)	(-2,2)	(-69,12)	(-28,2)	(-68,14)	(-97,2)	
L1D 98>	(-38,0)	(-99,57)	(2,4)	(12,11)	(-69,10)	(-98,28)	(0,71)	(-5,1)	(-97,0)	(-26,0)	(-20,6)	(-70,7)	(-95,0)	(-37,1)	(1,0)	(-91,1)	
L1D 99>	(-98,52)	(1,2)	(-99,104)	(-21,21)	(-196,1)	(0,1)	(-197,1)	(-37,10)	(5,4)	(-46,105)	(-10,5)	(-39,12)	(18,3)	(-2,10)	(10,2)	(-12,1)	
L1D 100>	(-46,119)	(-2,51)	(1,6)	(28,1)	(-30,1)	(3,2)	(-100,15)	(11,1)	(0,9)	(-5,1)	(10,4)	(-38,1)	(-199,10)	(2,0)	(4,0)	(1,0)	
L1D 101>	(1,20)	(5,25)	(14,2)	(3,15)	(0,35)	(-39,1)	(18,6)	(-201,8)	(-200,4)	(-2,8)	(20,1)	(17,4)	(-101,17)	(-32,1)	(16,6)	(-1,1)	
L1D 102>	(3,5)	(9,27)	(7,105)	(1,17)	(4,2)	(0,40)	(-5,3)	(-203,40)	(-102,24)	(-101,5)	(-202,4)	(5,2)	(2,6)	(14,1)	(196,1)	(-2,1)	
L1D 103>	(1,16)	(0,48)	(-205,94)	(-103,34)	(-91,81)	(14,4)	(-5,8)	(5,3)	(64,0)	(-204,0)	(3,0)	(18,2)	(-2,0)	(101,0)	(1,0)	(1,0)	
L1D 104>	(-1,3)	(8,3)	(-206,14)	(0,78)	(1,61)	(-103,85)	(-205,62)	(250,0)	(80,0)	(-104,2)	(-207,1)	(-363,0)	(1,0)	(1,0)	(1,0)	(1,0)	
L1D 105>	(-411,82)	(22,8)	(5,0)	(3,0)	(0,0)	(1,0)	(1,0)	(1,0)	(1,0)	(1,0)	(1,0)	(1,0)	(1,0)	(1,0)	(1,0)	(1,0)	
[...]
L1D 477>	(4,14)	(0,1)	(1,0)	(1,0)	(1,0)	(1,0)	(1,0)	(1,0)	(1,0)	(1,0)	(1,0)	(1,0)	(1,0)	(1,0)	(1,0)	(1,0)	
L1D 478>	(0,1)	(1,1)	(-10,1)	(1,0)	(1,0)	(1,0)	(1,0)	(1,0)	(1,0)	(1,0)	(1,0)	(1,0)	(1,0)	(1,0)	(1,0)	(1,0)	
L1D 479>	(4,5)	(0,3)	(1,0)	(1,0)	(1,0)	(1,0)	(1,0)	(1,0)	(1,0)	(1,0)	(1,0)	(1,0)	(1,0)	(1,0)	(1,0)	(1,0)	
L1D 480>	(1,1)	(-10,1)	(-479,1)	(-480,1)	(1,0)	(1,0)	(1,0)	(1,0)	(1,0)	(1,0)	(1,0)	(1,0)	(1,0)	(1,0)	(1,0)	(1,0)	
L1D 481>	(3,3)	(4,6)	(-232,1)	(0,1)	(1,0)	(1,0)	(1,0)	(1,0)	(1,0)	(1,0)	(1,0)	(1,0)	(1,0)	(1,0)	(1,0)	(1,0)	
L1D 482>	(0,2)	(-325,1)	(4,3)	(1,1)	(1,0)	(1,0)	(1,0)	(1,0)	(1,0)	(1,0)	(1,0)	(1,0)	(1,0)	(1,0)	(1,0)	(1,0)	
L1D 483>	(5,1)	(4,9)	(-470,1)	(0,1)	(1,0)	(1,0)	(1,0)	(1,0)	(1,0)	(1,0)	(1,0)	(1,0)	(1,0)	(1,0)	(1,0)	(1,0)	
L1D 484>	(1,2)	(5,1)	(1,0)	(1,0)	(1,0)	(1,0)	(1,0)	(1,0)	(1,0)	(1,0)	(1,0)	(1,0)	(1,0)	(1,0)	(1,0)	(1,0)	
L1D 485>	(4,4)	(0,3)	(1,1)	(1,0)	(1,0)	(1,0)	(1,0)	(1,0)	(1,0)	(1,0)	(1,0)	(1,0)	(1,0)	(1,0)	(1,0)	(1,0)	
L1D 486>	(0,1)	(1,0)	(1,0)	(1,0)	(1,0)	(1,0)	(1,0)	(1,0)	(1,0)	(1,0)	(1,0)	(1,0)	(1,0)	(1,0)	(1,0)	(1,0)	
L1D 487>	(4,7)	(-256,1)	(3,3)	(1,1)	(1,0)	(1,0)	(1,0)	(1,0)	(1,0)	(1,0)	(1,0)	(1,0)	(1,0)	(1,0)	(1,0)	(1,0)	
L1D 488>	(5,1)	(1,0)	(1,0)	(1,0)	(1,0)	(1,0)	(1,0)	(1,0)	(1,0)	(1,0)	(1,0)	(1,0)	(1,0)	(1,0)	(1,0)	(1,0)	
L1D 489>	(4,1)	(1,0)	(1,0)	(1,0)	(1,0)	(1,0)	(1,0)	(1,0)	(1,0)	(1,0)	(1,0)	(1,0)	(1,0)	(1,0)	(1,0)	(1,0)	
L1D 490>	(-1,1)	(1,2)	(-490,1)	(0,2)	(1,0)	(1,0)	(1,0)	(1,0)	(1,0)	(1,0)	(1,0)	(1,0)	(1,0)	(1,0)	(1,0)	(1,0)	
L1D 491>	(4,1)	(1,0)	(1,0)	(1,0)	(1,0)	(1,0)	(1,0)	(1,0)	(1,0)	(1,0)	(1,0)	(1,0)	(1,0)	(1,0)	(1,0)	(1,0)	
L1D 492>	(0,2)	(-492,1)	(1,0)	(1,0)	(1,0)	(1,0)	(1,0)	(1,0)	(1,0)	(1,0)	(1,0)	(1,0)	(1,0)	(1,0)	(1,0)	(1,0)	
L1D 493>	(1,0)	(1,0)	(1,0)	(1,0)	(1,0)	(1,0)	(1,0)	(1,0)	(1,0)	(1,0)	(1,0)	(1,0)	(1,0)	(1,0)	(1,0)	(1,0)	
L1D 494>	(-144,1)	(1,2)	(0,1)	(1,0)	(1,0)	(1,0)	(1,0)	(1,0)	(1,0)	(1,0)	(1,0)	(1,0)	(1,0)	(1,0)	(1,0)	(1,0)	
L1D 495>	(1,1)	(4,1)	(0,1)	(1,0)	(1,0)	(1,0)	(1,0)	(1,0)	(1,0)	(1,0)	(1,0)	(1,0)	(1,0)	(1,0)	(1,0)	(1,0)	
L1D 496>	(1,0)	(1,0)	(1,0)	(1,0)	(1,0)	(1,0)	(1,0)	(1,0)	(1,0)	(1,0)	(1,0)	(1,0)	(1,0)	(1,0)	(1,0)	(1,0)	
L1D 497>	(4,3)	(1,0)	(1,0)	(1,0)	(1,0)	(1,0)	(1,0)	(1,0)	(1,0)	(1,0)	(1,0)	(1,0)	(1,0)	(1,0)	(1,0)	(1,0)	
L1D 498>	(4,1)	(0,1)	(1,0)	(1,0)	(1,0)	(1,0)	(1,0)	(1,0)	(1,0)	(1,0)	(1,0)	(1,0)	(1,0)	(1,0)	(1,0)	(1,0)	
L1D 499>	(0,1)	(1,0)	(1,0)	(1,0)	(1,0)	(1,0)	(1,0)	(1,0)	(1,0)	(1,0)	(1,0)	(1,0)	(1,0)	(1,0)	(1,0)	(1,0)	
L1D 500>	(5,1)	(4,1)	(1,0)	(1,0)	(1,0)	(1,0)	(1,0)	(1,0)	(1,0)	(1,0)	(1,0)	(1,0)	(1,0)	(1,0)	(1,0)	(1,0)	
L1D 501>	(-491,1)	(1,1)	(4,1)	(1,0)	(1,0)	(1,0)	(1,0)	(1,0)	(1,0)	(1,0)	(1,0)	(1,0)	(1,0)	(1,0)	(1,0)	(1,0)	
L1D 502>	(-10,1)	(-254,1)	(0,1)	(1,0)	(1,0)	(1,0)	(1,0)	(1,0)	(1,0)	(1,0)	(1,0)	(1,0)	(1,0)	(1,0)	(1,0)	(1,0)	
L1D 503>	(4,1)	(1,0)	(1,0)	(1,0)	(1,0)	(1,0)	(1,0)	(1,0)	(1,0)	(1,0)	(1,0)	(1,0)	(1,0)	(1,0)	(1,0)	(1,0)	
L1D 504>	(1,0)	(1,0)	(1,0)	(1,0)	(1,0)	(1,0)	(1,0)	(1,0)	(1,0)	(1,0)	(1,0)	(1,0)	(1,0)	(1,0)	(1,0)	(1,0)	
L1D 505>	(1,0)	(1,0)	(1,0)	(1,0)	(1,0)	(1,0)	(1,0)	(1,0)	(1,0)	(1,0)	(1,0)	(1,0)	(1,0)	(1,0)	(1,0)	(1,0)	
L1D 506>	(1,0)	(1,0)	(1,0)	(1,0)	(1,0)	(1,0)	(1,0)	(1,0)	(1,0)	(1,0)	(1,0)	(1,0)	(1,0)	(1,0)	(1,0)	(1,0)	
L1D 507>	(1,0)	(1,0)	(1,0)	(1,0)	(1,0)	(1,0)	(1,0)	(1,0)	(1,0)	(1,0)	(1,0)	(1,0)	(1,0)	(1,0)	(1,0)	(1,0)	
L1D 508>	(1,0)	(1,0)	(1,0)	(1,0)	(1,0)	(1,0)	(1,0)	(1,0)	(1,0)	(1,0)	(1,0)	(1,0)	(1,0)	(1,0)	(1,0)	(1,0)	
L1D 509>	(1,0)	(1,0)	(1,0)	(1,0)	(1,0)	(1,0)	(1,0)	(1,0)	(1,0)	(1,0)	(1,0)	(1,0)	(1,0)	(1,0)	(1,0)	(1,0)	
L1D 510>	(0,2)	(1,0)	(1,0)	(1,0)	(1,0)	(1,0)	(1,0)	(1,0)	(1,0)	(1,0)	(1,0)	(1,0)	(1,0)	(1,0)	(1,0)	(1,0)	
L1D 511>	(1,0)	(1,0)	(1,0)	(1,0)	(1,0)	(1,0)	(1,0)	(1,0)	(1,0)	(1,0)	(1,0)	(1,0)	(1,0)	(1,0)	(1,0)	(1,0)	

L2C -64>	(1,173)	(-16,1)	(0,31)	(-5,166)	(3,24)	(-7,15)	(4,23)	(-6,68)	(-3,29)	(-9,8)	(6,9)	(-2,24)	(5,16)	(2,40)	(-1,50)	(-4,21)	
L2C -63>	(43,1)	(0,1)	(18,2)	(30,1)	(21,1)	(1,10)	(52,1)	(13,2)	(44,1)	(7,1)	(47,2)	(10,1)	(48,1)	(49,1)	(51,1)	(41,1)	
L2C -62>	(26,1)	(1,28)	(9,1)	(57,1)	(17,1)	(8,2)	(56,1)	(12,1)	(11,1)	(30,1)	(18,2)	(6,1)	(-1,1)	(44,1)	(42,1)	(63,1)	
L2C -61>	(13,2)	(12,2)	(44,1)	(52,1)	(45,1)	(48,1)	(1,20)	(14,1)	(5,1)	(47,2)	(11,1)	(8,2)	(43,1)	(6,1)	(9,1)	(15,1)	
L2C -60>	(18,4)	(34,1)	(12,2)	(1,11)	(2,2)	(45,2)	(44,1)	(3,1)	(15,2)	(5,1)	(-3,1)	(17,1)	(14,2)	(11,2)	(9,1)	(8,1)	
L2C -59>	(9,1)	(51,2)	(1,22)	(45,3)	(42,1)	(47,1)	(7,2)	(13,3)	(6,2)	(14,2)	(40,1)	(8,2)	(12,1)	(46,1)	(49,2)	(34,1)	
L2C -58>	(59,4)	(54,1)	(1,25)	(47,1)	(50,1)	(2,2)	(39,1)	(25,1)	(10,1)	(14,1)	(-1,3)	(9,2)	(51,1)	(44,3)	(48,1)	(-2,1)	
L2C -57>	(7,3)	(1,26)	(33,1)	(4,2)	(14,2)	(-3,1)	(9,1)	(57,2)	(43,1)	(58,4)	(46,2)	(13,2)	(52,1)	(18,1)	(0,2)	(15,3)	
L2C -56>	(12,3)	(42,1)	(4,1)	(1,34)	(49,3)	(16,1)	(50,3)	(8,4)	(55,1)	(51,1)	(11,1)	(9,7)	(7,2)	(2,2)	(48,2)	(10,1)	
L2C -55>	(34,2)	(1,29)	(14,2)	(2,1)	(49,5)	(3,2)	(15,1)	(-2,1)	(55,2)	(-3,1)	(50,4)	(48,2)	(26,2)	(7,2)	(47,1)	(-1,2)	
L2C -54>	(52,3)	(1,28)	(54,4)	(3,10)	(-3,3)	(2,6)	(7,10)	(-1,5)	(39,2)	(4,3)	(5,4)	(14,3)	(44,1)	(51,3)	(8,4)	(30,1)	
L2C -53>	(49,10)	(8,5)	(1,31)	(14,20)	(51,7)	(2,4)	(18,2)	(13,3)	(15,7)	(46,2)	(3,2)	(-2,1)	(38,2)	(-3,1)	(48,5)	(24,1)	
L2C -52>	(51,10)	(52,4)	(18,2)	(3,4)	(9,2)	(8,5)	(1,61)	(7,5)	(5,7)	(2,7)	(46,3)	(61,1)	(14,12)	(12,1)	(-7,2)	(4,5)	
L2C -51>	(8,5)	(1,92)	(-1,7)	(2,9)	(7,5)	(14,4)	(52,12)	(45,2)	(21,1)	(9,2)	(50,5)	(6,5)	(36,2)	(-8,1)	(46,3)	(11,1)	
L2C -50>	(1,67)	(47,3)	(-1,10)	(7,2)	(-5,3)	(49,2)	(14,4)	(2,2)	(9,2)	(-2,7)	(15,2)	(-3,3)	(8,5)	(32,1)	(3,2)	(16,1)	
L2C -49>	(2,12)	(1,56)	(3,1)	(50,4)	(9,4)	(44,1)	(8,2)	(7,3)	(-1,7)	(17,2)	(12,4)	(11,1)	(19,1)	(0,1)	(-5,4)	(22,1)	
L2C -48>	(1,100)	(-1,5)	(17,1)	(7,1)	(-3,3)	(20,1)	(16,2)	(49,2)	(51,2)	(48,5)	(9,3)	(2,3)	(34,1)	(11,1)	(57,1)	(13,2)	
L2C -47>	(1,109)	(-3,2)	(45,2)	(16,4)	(0,4)	(-5,15)	(7,3)	(48,3)	(-1,3)	(15,5)	(14,15)	(43,1)	(2,6)	(20,1)	(19,3)	(31,1)	
L2C -46>	(4,3)	(9,1)	(1,55)	(5,1)	(47,6)	(2,4)	(-16,2)	(-4,2)	(50,1)	(-12,1)	(7,4)	(18,2)	(-2,3)	(-17,3)	(-1,6)	(40,1)	
L2C -45>	(9,2)	(19,2)	(46,4)	(47,7)	(1,62)	(44,2)	(8,7)	(11,4)	(7,7)	(25,3)	(4,2)	(45,2)	(48,4)	(2,6)	(50,1)	(-2,2)	
L2C -44>	(9,1)	(45,3)	(1,62)	(7,6)	(44,20)	(2,24)	(41,7)	(11,2)	(19,1)	(6,2)	(52,2)	(20,1)	(4,1)	(3,4)	(18,3)	(28,2)	
L2C -43>	(1,103)	(40,11)	(48,1)	(6,1)	(3,2)	(15,3)	(35,2)	(-1,8)	(11,4)	(44,8)	(53,1)	(-8,1)	(2,9)	(16,2)	(18,2)	(42,10)	
L2C -42>	(12,2)	(2,17)	(1,55)	(41,1)	(4,3)	(34,2)	(43,11)	(7,3)	(44,3)	(-2,4)	(10,2)	(40,17)	(16,2)	(8,4)	(-1,11)	(33,2)	
L2C -41>	(3,12)	(2,8)	(10,3)	(1,50)	(7,2)	(43,5)	(14,2)	(25,1)	(-7,1)	(13,2)	(41,3)	(9,2)	(-1,6)	(42,7)	(30,1)	(60,1)	
L2C -40>	(10,4)	(1,47)	(52,5)	(2,18)	(51,2)	(40,7)	(53,4)	(33,15)	(-1,6)	(0,5)	(38,2)	(3,6)	(7,3)	(44,1)	(41,7)	(21,1)	
L2C -39>	(19,3)	(1,81)	(51,7)	(3,2)	(52,6)	(-6,2)	(22,1)	(44,2)	(-1,5)	(0,19)	(39,25)	(41,2)	(31,1)	(33,39)	(2,11)	(4,2)	
L2C -38>	(2,20)	(1,75)	(39,1)	(19,2)	(-3,4)	(33,31)	(46,2)	(51,15)	(40,2)	(36,1)	(45,2)	(10,2)	(21,1)	(3,9)	(20,2)	(52,3)	
L2C -37>	(0,5)	(1,62)	(26,2)	(2,22)	(39,2)	(11,1)	(19,3)	(9,1)	(4,2)	(20,2)	(18,2)	(-1,10)	(40,11)	(-3,2)	(38,3)	(3,11)	
L2C -36>	(1,61)	(0,6)	(2,18)	(33,1)	(3,20)	(-1,5)	(34,1)	(23,2)	(29,1)	(24,3)	(53,2)	(14,2)	(8,2)	(45,1)	(37,7)	(46,1)	
L2C -35>	(1,74)	(0,30)	(35,3)	(30,3)	(2,28)	(3,6)	(19,2)	(16,1)	(9,1)	(33,6)	(36,9)	(18,5)	(-12,1)	(5,1)	(45,1)	(8,3)	
L2C -34>	(35,6)	(3,12)	(18,2)	(36,3)	(1,80)	(0,11)	(15,4)	(42,1)	(28,1)	(33,1)	(-8,4)	(49,2)	(-3,1)	(2,30)	(-7,2)	(48,1)	
L2C -33>	(-1,8)	(1,84)	(7,3)	(2,68)	(0,3)	(18,5)	(44,2)	(17,2)	(8,1)	(53,3)	(52,5)	(36,2)	(3,19)	(6,2)	(10,1)	(33,27)	
L2C -32>	(3,31)	(28,2)	(2,63)	(7,7)	(1,76)	(14,6)	(-1,16)	(33,7)	(40,5)	(10,4)	(31,3)	(12,2)	(34,2)	(19,2)	(9,3)	(4,1)	
L2C -31>	(1,113)	(2,39)	(18,3)	(-1,1)	(-19,1)	(3,18)	(-25,1)	(33,2)	(12,2)	(16,2)	(-12,2)	(-4,1)	(34,1)	(13,1)	(19,1)	(-10,1)	
L2C -30>	(8,7)	(2,30)	(3,21)	(-6,1)	(-1,16)	(1,87)	(7,1)	(9,5)	(-22,2)	(-2,4)	(33,2)	(5,7)	(31,7)	(28,1)	(63,1)	(45,2)	
L2C -29>	(1,89)	(-1,7)	(-8,3)	(-3,2)	(22,1)	(30,10)	(3,12)	(2,51)	(34,1)	(23,3)	(28,4)	(-4,3)	(-31,1)	(56,1)	(-9,1)	(-10,1)	
L2C -28>	(1,73)	(0,15)	(-2,1)	(34,1)	(10,7)	(29,16)	(8,1)	(21,2)	(2,39)	(-1,29)	(-13,1)	(3,13)	(48,2)	(23,1)	(6,2)	(18,2)	
L2C -27>	(1,93)	(3,31)	(-3,3)	(28,6)	(14,2)	(2,40)	(31,2)	(11,2)	(32,3)	(17,4)	(-1,14)	(55,2)	(5,2)	(7,2)	(18,2)	(8,6)	
L2C -26>	(27,16)	(5,13)	(1,149)	(-16,2)	(17,5)	(52,1)	(-2,6)	(7,20)	(48,3)	(14,3)	(4,12)	(2,16)	(3,16)	(0,5)	(15,3)	(22,3)	
L2C -25>	(30,6)	(3,6)	(4,6)	(26,13)	(9,5)	(12,10)	(1,107)	(28,2)	(8,1)	(-3,3)	(-34,1)	(-1,15)	(0,4)	(24,5)	(2,10)	(21,4)	
L2C -24>	(19,3)	(1,113)	(-1,17)	(2,5)	(-13,2)	(-3,1)	(24,3)	(47,4)	(-26,1)	(26,4)	(18,7)	(34,2)	(8,5)	(-7,3)	(3,8)	(-33,1)	
L2C -23>	(24,19)	(15,4)	(-1,8)	(4,4)	(12,11)	(1,114)	(-2,2)	(10,8)	(6,7)	(22,3)	(20,3)	(14,1)	(2,18)	(-5,2)	(26,5)	(40,3)	
L2C -22>	(-12,1)	(19,6)	(34,5)	(-1,16)	(1,104)	(2,16)	(-2,6)	(6,6)	(21,14)	(-21,2)	(10,8)	(-10,2)	(12,3)	(23,21)	(22,3)	(7,15)	
L2C -21>	(3,10)	(0,9)	(2,10)	(1,168)	(-1,33)	(30,1)	(17,6)	(7,7)	(18,4)	(9,6)	(12,5)	(22,6)	(-2,4)	(-10,9)	(11,9)	(5,4)	
L2C -20>	(1,136)	(17,3)	(4,5)	(2,79)	(32,3)	(13,5)	(7,6)	(3,28)	(10,2)	(-2,13)	(16,8)	(-1,25)	(-5,4)	(-16,1)	(23,4)	(21,11)	
L2C -19>	(1,143)	(25,5)	(12,3)	(10,5)	(-1,12)	(5,3)	(11,19)	(3,14)	(30,3)	(14,4)	(2,18)	(20,16)	(-34,2)	(-17,1)	(9,8)	(37,2)	
L2C -18>	(1,202)	(-4,5)	(2,41)	(19,16)	(-2,46)	(8,8)	(-24,1)	(0,8)	(-9,5)	(14,3)	(-1,10)	(-15,3)	(18,8)	(16,28)	(29,5)	(23,4)	
L2C -17>	(1,145)	(23,2)	(38,1)	(29,1)	(-2,13)	(12,2)	(20,1)	(3,7)	(-3,1)	(-4,1)	(19,3)	(17,1)	(18,6)	(2,7)	(-33,2)	(-1,6)	
L2C -16>	(1,245)	(2,63)	(4,2)	(-3,10)	(6,2)	(3,22)	(18,10)	(24,2)	(0,17)	(-1,8)	(33,1)	(9,3)	(16,20)	(17,9)	(5,4)	(15,2)	
L2C -15>	(6,1)	(3,4)	(1,226)	(-11,1)	(7,1)	(-9,1)	(2,4)	(22,3)	(21,1)	(4,1)	(25,3)	(16,6)	(26,1)	(-1,3)	(-7,1)	(-17,1)	
L2C -14>	(-11,2)	(-5,1)	(1,167)	(6,1)	(-6,1)	(2,9)	(11,1)	(14,1)	(15,1)	(48,1)	(-1,1)	(23,2)	(3,2)	(34,1)	(-2,1)	(21,2)	
L2C -13>	(1,164)	(3,8)	(2,19)	(-10,3)	(17,4)	(-43,1)	(-7,9)	(8,11)	(-1,7)	(13,4)	(20,1)	(-9,1)	(14,9)	(0,3)	(-6,5)	(4,2)	
L2C -12>	(1,244)	(2,34)	(13,25)	(-1,45)	(11,6)	(12,4)	(15,5)	(20,8)	(3,17)	(10,1)	(5,9)	(-14,2)	(9,10)	(-3,4)	(30,3)	(8,3)	
L2C -11>	(1,227)	(12,59)	(5,1)	(3,21)	(-5,6)	(13,5)	(14,5)	(-1,31)	(17,6)	(21,10)	(0,8)	(2,30)	(9,20)	(10,12)	(15,11)	(-3,3)	
L2C -10>	(1,226)	(24,18)	(2,38)	(5,68)	(11,56)	(0,51)	(17,8)	(25,11)	(-3,8)	(9,19)	(4,45)	(10,25)	(7,34)	(-1,56)	(-17,1)	(8,20)	
L2C -9>	(1,218)	(2,35)	(7,13)	(10,23)	(4,3)	(11,5)	(3,45)	(24,9)	(-2,9)	(35,1)	(-27,7)	(-1,22)	(-8,1)	(0,7)	(13,3)	(17,2)	
L2C -8>	(1,144)	(4,6)	(16,3)	(-1,24)	(2,35)	(11,22)	(-21,1)	(9,26)	(6,3)	(31,2)	(0,17)	(-11,12)	(8,6)	(32,3)	(10,7)	(20,3)	
L2C -7>	(1,231)	(-3,26)	(4,8)	(5,20)	(-1,46)	(2,47)	(3,43)	(7,1)	(0,22)	(6,5)	(21,4)	(8,33)	(10,6)	(11,4)	(-2,8)	(-33,6)	
L2C -6>	(1,133)	(8,5)	(7,48)	(-1,51)	(22,58)	(0,27)	(5,14)	(2,44)	(3,21)	(-4,6)	(20,5)	(12,4)	(21,1)	(4,12)	(-2,3)	(6,9)	
L2C -5>	(6,23)	(9,1)	(1,254)	(4,7)	(12,1)	(7,9)	(5,5)	(2,21)	(13,1)	(22,1)	(-1,74)	(8,2)	(-2,4)	(3,9)	(0,180)	(52,1)	
L2C -4>	(1,128)	(2,16)	(0,29)	(7,2)	(6,6)	(-1,105)	(-2,4)	(-4,2)	(9,1)	(-23,0)	(-3,2)	(5,32)	(4,4)	(-32,0)	(3,10)	(-13,1)	
L2C -3>	(1,239)	(12,16)	(2,14)	(-1,26)	(4,21)	(3,14)	(-2,7)	(5,8)	(13,2)	(-4,3)	(-8,1)	(0,60)	(24,1)	(-6,1)	(8,1)	(-3,2)	
L2C -2>	(50,1)	(-47,1)	(-5,7)	(5,7)	(1,244)	(3,114)	(-4,10)	(2,137)	(-3,5)	(-1,43)	(32,1)	(0,80)	(4,17)	(12,7)	(-36,2)	(39,1)	
L2C -1>	(-10,3)	(2,171)	(3,30)	(-8,1)	(1,112)	(0,65)	(-2,3)	(16,1)	(-1,51)	(4,5)	(-25,1)	(27,1)	(-13,2)	(-4,2)	(13,2)	(-12,3)	
L2C 0>	(1,11)	(-1,46)	(0,135)	(-5,0)	(-3,1)	(-7,0)	(2,4)	(-4,0)	(-8,0)	(-45,0)	(-44,0)	(3,2)	(-17,0)	(16,0)	(39,0)	(-6,0)	
L2C 1>	(1,219)	(-5,3)	(2,7)	(-3,3)	(-1,7)	(14,1)	(-14,1)	(12,1)	(-18,1)	(-26,2)	(-9,1)	(0,9)	(-6,8)	(16,7)	(-13,1)	(3,1)	
L2C 2>	(1,136)	(-14,2)	(-3,1)	(-1,63)	(18,2)	(2,7)	(-13,1)	(-6,1)	(6,1)	(5,1)	(3,3)	(49,0)	(4,1)	(0,1)	(-4,3)	(-2,12)	
L2C 3>	(1,197)	(-2,15)	(15,4)	(-6,2)	(-14,1)	(18,5)	(-5,3)	(-7,2)	(2,16)	(7,4)	(14,3)	(-1,70)	(-10,6)	(-3,24)	(0,2)	(4,2)	
L2C 4>	(3,9)	(1,244)	(-3,24)	(0,10)	(-2,19)	(2,34)	(-29,1)	(-5,12)	(-1,41)	(16,3)	(-10,3)	(4,2)	(-4,4)	(14,19)	(-6,7)	(21,9)	
L2C 5>	(1,128)	(3,8)	(2,25)	(-6,9)	(-1,35)	(-5,7)	(10,1)	(-11,2)	(-4,12)	(-8,1)	(-7,1)	(14,7)	(-2,5)	(4,3)	(0,17)	(-3,11)	
L2C 6>	(2,11)	(-4,4)	(1,153)	(-1,25)	(3,10)	(14,4)	(-5,9)	(7,6)	(-21,3)	(-23,1)	(-12,2)	(6,5)	(0,8)	(13,1)	(-6,8)	(-7,3)	
L2C 7>	(1,149)	(3,8)	(-13,3)	(-8,4)	(-6,19)	(-4,10)	(14,1)	(-2,6)	(-7,3)	(2,31)	(-1,17)	(-5,5)	(8,4)	(7,3)	(16,2)	(0,1)	
L2C 8>	(1,226)	(2,43)	(-5,11)	(8,7)	(-7,30)	(-4,12)	(-9,8)	(15,9)	(-23,6)	(-8,6)	(-1,26)	(-2,6)	(4,10)	(16,8)	(41,1)	(-13,5)	
L2C 9>	(1,157)	(-8,11)	(-1,9)	(-7,13)	(-13,4)	(4,5)	(33,1)	(-4,8)	(6,9)	(-24,4)	(16,4)	(5,5)	(2,31)	(-10,9)	(-19,3)	(-6,8)	
L2C 10>	(-11,19)	(41,1)	(1,183)	(-1,41)	(6,5)	(3,8)	(15,5)	(-6,7)	(4,6)	(-2,14)	(14,5)	(2,42)	(-5,16)	(-12,3)	(-9,32)	(7,5)	
L2C 11>	(-1,100)	(1,245)	(-12,28)	(-31,8)	(-10,52)	(3,7)	(-4,33)	(2,28)	(-8,6)	(11,14)	(-22,7)	(-3,10)	(4,2)	(-7,12)	(-26,3)	(-6,5)	
L2C 12>	(-3,2)	(1,147)	(-22,1)	(-13,17)	(-5,12)	(-14,2)	(-11,27)	(-4,6)	(-1,78)	(3,6)	(-7,2)	(4,2)	(-20,2)	(8,1)	(2,23)	(10,3)	
L2C 13>	(-12,25)	(-19,7)	(-33,1)	(1,164)	(-6,17)	(-2,13)	(-13,11)	(-11,4)	(-1,21)	(2,14)	(-10,19)	(-15,4)	(7,3)	(-18,3)	(-34,7)	(13,3)	
L2C 14>	(1,150)	(3,8)	(-1,31)	(-12,3)	(-13,164)	(-4,15)	(14,2)	(4,2)	(-5,12)	(-11,3)	(-22,2)	(33,17)	(2,12)	(-24,1)	(-6,3)	(-15,5)	
L2C 15>	(1,39)	(-6,4)	(-14,207)	(2,18)	(11,2)	(-1,26)	(-16,1)	(0,3)	(-13,9)	(-10,2)	(-41,1)	(-15,2)	(-4,3)	(33,2)	(3,1)	(-5,6)	
L2C 16>	(1,39)	(-15,189)	(-14,10)	(2,6)	(-58,1)	(6,1)	(0,5)	(-13,3)	(-6,1)	(-20,1)	(-12,1)	(-1,7)	(-21,1)	(-3,1)	(-16,12)	(12,2)	
L2C 17>	(-16,50)	(1,129)	(-14,13)	(2,18)	(-43,3)	(-22,4)	(-15,21)	(-37,3)	(-3,4)	(8,1)	(-1,22)	(6,7)	(-2,3)	(-17,22)	(-5,9)	(0,7)	
L2C 18>	(-16,9)	(-17,200)	(-1,14)	(1,75)	(-4,5)	(-21,1)	(-14,3)	(2,13)	(4,1)	(-13,2)	(-6,1)	(-11,2)	(-18,12)	(-5,1)	(-45,2)	(6,3)	
L2C 19>	(-1,27)	(-18,102)	(-38,1)	(1,184)	(-17,7)	(18,5)	(-21,6)	(-13,9)	(-20,8)	(14,4)	(-16,39)	(3,16)	(-10,3)	(-15,2)	(-22,2)	(2,19)	
L2C 20>	(1,165)	(-16,14)	(-1,10)	(-17,10)	(-19,24)	(-32,8)	(3,10)	(12,1)	(-15,12)	(-13,66)	(2,17)	(-14,4)	(-42,2)	(-7,4)	(14,3)	(-31,3)	
L2C 21>	(1,160)	(-17,16)	(-1,24)	(6,1)	(-20,25)	(5,3)	(-8,4)	(-15,6)	(-12,4)	(-18,15)	(2,23)	(-21,9)	(3,7)	(-5,4)	(-13,14)	(-16,5)	
L2C 22>	(1,111)	(-14,4)	(3,3)	(-8,3)	(-1,27)	(-15,186)	(-7,2)	(-18,7)	(2,4)	(-17,7)	(19,3)	(-30,2)	(-25,1)	(5,2)	(-22,4)	(-27,1)	
L2C 23>	(1,165)	(-16,9)	(2,15)	(3,4)	(-1,30)	(-22,14)	(-15,6)	(4,9)	(20,3)	(-3,6)	(-13,10)	(12,1)	(-10,2)	(6,3)	(-5,2)	(18,2)	
L2C 24>	(-32,9)	(1,151)	(-23,15)	(4,1)	(-20,11)	(-4,2)	(-15,7)	(-21,11)	(2,12)	(-16,5)	(-52,2)	(3,4)	(-1,31)	(-31,6)	(-13,9)	(-14,8)	
L2C 25>	(-16,5)	(-26,7)	(-13,1)	(-34,5)	(4,7)	(-3,7)	(-24,17)	(1,120)	(-35,3)	(3,5)	(-22,4)	(-1,32)	(-49,2)	(-5,10)	(-17,3)	(-18,3)	
L2C 26>	(1,137)	(-13,5)	(-30,1)	(-6,3)	(-2,3)	(-4,6)	(-22,4)	(9,3)	(-3,3)	(3,8)	(-25,14)	(-1,26)	(2,12)	(-16,2)	(-5,7)	(-17,2)	
L2C 27>	(-16,4)	(-1,20)	(-5,10)	(-26,19)	(-28,4)	(1,148)	(-12,3)	(2,6)	(3,8)	(-33,3)	(-6,2)	(-29,2)	(-21,10)	(-36,2)	(-4,3)	(-27,3)	
L2C 28>	(-8,3)	(1,102)	(-1,12)	(-26,3)	(-5,3)	(2,30)	(-22,2)	(0,3)	(-2,7)	(-17,4)	(8,3)	(-36,1)	(-32,6)	(-27,10)	(-20,3)	(-25,4)	
L2C 29>	(14,7)	(1,114)	(-28,14)	(7,2)	(-4,4)	(-7,4)	(3,16)	(-32,2)	(-1,21)	(10,1)	(15,3)	(2,12)	(-8,3)	(-23,1)	(-9,3)	(-12,3)	
L2C 30>	(14,6)	(3,7)	(1,102)	(27,1)	(-23,2)	(-5,8)	(6,3)	(-29,10)	(2,15)	(0,2)	(-22,2)	(-31,3)	(5,4)	(-39,1)	(8,2)	(-1,13)	
L2C 31>	(-39,1)	(1,68)	(8,7)	(-11,4)	(-28,6)	(2,16)	(3,14)	(-27,2)	(-5,3)	(-32,2)	(-19,3)	(-46,2)	(-1,21)	(-30,5)	(-20,2)	(-31,2)	
L2C 32>	(3,8)	(-14,5)	(-5,1)	(-31,12)	(1,55)	(-28,2)	(-30,5)	(18,1)	(-8,2)	(-19,5)	(2,19)	(7,11)	(-59,1)	(-33,1)	(-35,2)	(-27,1)	
L2C 33>	(1,230)	(-1,23)	(-30,3)	(3,65)	(2,34)	(-14,14)	(-32,8)	(4,4)	(5,3)	(-24,3)	(-7,1)	(12,1)	(-3,2)	(-33,3)	(-31,4)	(0,6)	
L2C 34>	(-36,5)	(1,75)	(2,13)	(-1,4)	(-48,1)	(5,2)	(-18,1)	(-11,5)	(-34,5)	(-35,2)	(-3,2)	(-31,2)	(-30,2)	(8,4)	(-45,1)	(-20,1)	
L2C 35>	(-16,1)	(-54,2)	(1,63)	(-26,2)	(8,2)	(-9,2)	(-7,1)	(-42,3)	(-44,1)	(-1,7)	(-36,5)	(2,9)	(7,3)	(-35,4)	(-8,3)	(-31,2)	
L2C 36>	(1,44)	(-18,2)	(-33,3)	(-41,1)	(16,1)	(-29,3)	(2,6)	(-35,6)	(-1,7)	(7,5)	(5,1)	(-3,2)	(-47,2)	(-49,1)	(-37,1)	(9,1)	
L2C 37>	(2,8)	(1,64)	(-38,4)	(-1,6)	(-36,4)	(-2,3)	(-15,2)	(-18,1)	(5,1)	(-22,1)	(-10,1)	(-39,6)	(4,3)	(0,10)	(-26,2)	(-43,2)	
L2C 38>	(-29,1)	(-41,2)	(13,2)	(-1,16)	(-17,22)	(9,1)	(6,2)	(1,26)	(-28,1)	(-44,5)	(-31,2)	(-39,1)	(-37,4)	(-32,1)	(-49,2)	(2,10)	
L2C 39>	(1,37)	(2,5)	(-4,1)	(-39,50)	(-1,11)	(5,1)	(9,1)	(-13,2)	(-38,13)	(12,1)	(-33,1)	(-31,2)	(3,1)	(-37,2)	(-40,2)	(-20,3)	
L2C 40>	(-7,3)	(1,123)	(-40,6)	(0,11)	(14,2)	(-1,8)	(3,14)	(-22,3)	(-31,3)	(2,32)	(-20,1)	(13,1)	(-3,5)	(-37,1)	(-46,1)	(-5,1)	
L2C 41>	(1,65)	(-39,11)	(2,13)	(-32,2)	(-38,11)	(0,19)	(-1,6)	(-18,1)	(-48,2)	(-24,4)	(-31,1)	(8,2)	(13,11)	(-27,1)	(-14,3)	(-40,8)	
L2C 42>	(1,30)	(-43,4)	(2,9)	(-41,10)	(-11,1)	(-49,3)	(-1,5)	(3,5)	(-29,1)	(0,24)	(-40,1)	(-31,2)	(-34,3)	(-38,1)	(-33,4)	(-6,2)	
L2C 43>	(1,53)	(-42,10)	(-1,15)	(-44,3)	(-28,2)	(2,9)	(-40,3)	(-22,2)	(-39,3)	(-35,2)	(-53,3)	(-60,1)	(-50,1)	(7,2)	(-24,1)	(-16,1)	
L2C 44>	(-43,15)	(-14,8)	(0,11)	(1,58)	(2,10)	(5,2)	(-13,1)	(-4,1)	(3,4)	(-44,12)	(-53,2)	(-31,3)	(-2,3)	(-1,12)	(-33,1)	(-6,1)	
L2C 45>	(-52,1)	(1,50)	(2,8)	(-54,4)	(-31,2)	(-48,2)	(-46,2)	(-41,1)	(-34,4)	(-51,3)	(-44,5)	(0,4)	(-26,2)	(-1,3)	(-50,1)	(-9,2)	
L2C 46>	(-52,3)	(2,9)	(1,34)	(-40,3)	(-34,3)	(8,2)	(-50,3)	(-45,8)	(-31,2)	(-1,3)	(-60,1)	(11,2)	(-33,2)	(-53,3)	(4,2)	(-43,1)	
L2C 47>	(-47,2)	(-46,9)	(1,64)	(2,9)	(-54,1)	(-50,4)	(-37,3)	(-40,2)	(-20,1)	(-38,1)	(-31,2)	(-51,3)	(-49,2)	(-39,2)	(-45,3)	(3,1)	
L2C 48>	(-49,1)	(3,5)	(1,40)	(-47,11)	(-2,3)	(-48,2)	(-44,4)	(-30,1)	(-24,2)	(-51,6)	(-45,3)	(-60,3)	(-50,19)	(-46,4)	(-1,2)	(-31,2)	
L2C 49>	(1,52)	(-36,1)	(-47,7)	(-40,1)	(0,4)	(-21,1)	(-53,6)	(-48,13)	(-19,2)	(-50,11)	(-54,10)	(2,7)	(-39,1)	(6,2)	(-22,2)	(-51,4)	
L2C 50>	(1,37)	(-46,1)	(-56,1)	(-18,3)	(-41,1)	(2,11)	(-49,10)	(-48,4)	(3,7)	(-42,2)	(-13,1)	(-53,1)	(-50,1)	(-38,2)	(4,2)	(-36,1)	
L2C 51>	(-52,12)	(1,22)	(-50,6)	(-51,5)	(-2,4)	(3,3)	(-41,3)	(-38,6)	(-58,1)	(-29,1)	(-18,18)	(-44,2)	(-53,5)	(2,8)	(-1,3)	(-16,1)	
L2C 52>	(1,38)	(2,7)	(-43,3)	(-53,3)	(-51,5)	(-19,11)	(-6,1)	(3,2)	(-48,2)	(0,8)	(-55,1)	(-54,4)	(-63,1)	(-57,7)	(-50,2)	(-2,1)	
L2C 53>	(1,24)	(-47,1)	(-39,2)	(-61,1)	(-20,2)	(2,9)	(-51,4)	(-1,1)	(-46,1)	(0,3)	(3,3)	(-49,1)	(-45,2)	(-41,1)	(-13,1)	(4,1)	
L2C 54>	(5,1)	(1,8)	(-47,1)	(-50,3)	(-51,12)	(2,2)	(-54,3)	(-7,2)	(-53,2)	(-4,1)	(-2,1)	(-20,1)	(-56,1)	(-57,1)	(3,2)	(-46,1)	
L2C 55>	(1,20)	(-10,1)	(0,1)	(-40,1)	(-48,1)	(3,6)	(2,3)	(-23,2)	(-42,1)	(-57,1)	(-53,1)	(-47,1)	(-55,1)	(-15,1)	(1,0)	(1,0)	
L2C 56>	(-7,1)	(-1,4)	(-52,3)	(-57,1)	(-32,1)	(-44,1)	(-28,1)	(-42,1)	(1,8)	(-2,1)	(-53,1)	(2,1)	(-20,1)	(-54,1)	(-50,1)	(1,0)	
L2C 57>	(1,15)	(-62,1)	(-1,1)	(-48,1)	(0,3)	(3,1)	(-56,1)	(-50,1)	(1,0)	(1,0)	(1,0)	(1,0)	(1,0)	(1,0)	(1,0)	(1,0)	
L2C 58>	(-1,1)	(-46,1)	(-28,1)	(-18,1)	(-52,1)	(1,6)	(-49,1)	(-55,1)	(-51,1)	(1,0)	(1,0)	(1,0)	(1,0)	(1,0)	(1,0)	(1,0)	
L2C 59>	(3,1)	(-1,2)	(-59,1)	(1,4)	(-61,1)	(-37,1)	(1,0)	(1,0)	(1,0)	(1,0)	(1,0)	(1,0)	(1,0)	(1,0)	(1,0)	(1,0)	
L2C 60>	(-47,1)	(-41,1)	(-59,1)	(1,2)	(-21,1)	(-2,1)	(-25,1)	(-52,2)	(-51,1)	(1,0)	(1,0)	(1,0)	(1,0)	(1,0)	(1,0)	(1,0)	
L2C 61>	(-29,1)	(-1,1)	(-3,1)	(2,1)	(-53,1)	(1,0)	(1,0)	(1,0)	(1,0)	(1,0)	(1,0)	(1,0)	(1,0)	(1,0)	(1,0)	(1,0)	
L2C 62>	(-55,1)	(-11,1)	(1,1)	(-48,1)	(1,0)	(1,0)	(1,0)	(1,0)	(1,0)	(1,0)	(1,0)	(1,0)	(1,0)	(1,0)	(1,0)	(1,0)	
L2C 63>	(-62,1)	(-37,1)	(-1,1)	(-12,1)	(-8,1)	(1,0)	(1,0)	(1,0)	(1,0)	(1,0)	(1,0)	(1,0)	(1,0)	(1,0)	(1,0)	(1,0)	

DRAM Statistics
 CHANNEL 0
 RQ ROW_BUFFER_HIT:     333115  ROW_BUFFER_MISS:     352662
 DBUS_CONGESTED:     491499
 WQ ROW_BUFFER_HIT:       3845  ROW_BUFFER_MISS:      58998  FULL:          0

 AVG_CONGESTED_CYCLE: 6
