
*** ChampSim Multicore Out-of-Order Simulator ***

Warmup Instructions: 1000000
Simulation Instructions: 10000000
Number of CPUs: 1
LLC sets: 2048
LLC ways: 16
Off-chip DRAM Size: 4096 MB Channels: 1 Width: 64-bit Data Rate: 3200 MT/s

CPU 0 runs /home/virtualcse/Data-Prefetching/ChampSim/dpc3_traces/623.xalancbmk_s-700B.champsimtrace.xz
Ultra pref. initializing...
Ultra pref. initialized
Ultra pref. initializing...
Ultra pref. initialized

Warmup complete CPU 0 instructions: 1000001 cycles: 507304 (Simulation time: 0 hr 0 min 2 sec) 

Heartbeat CPU 0 instructions: 10000003 cycles: 15424253 heartbeat IPC: 0.64833 cumulative IPC: 0.603341 (Simulation time: 0 hr 0 min 21 sec) 
Finished CPU 0 instructions: 10000001 cycles: 16279973 cumulative IPC: 0.614252 (Simulation time: 0 hr 0 min 23 sec) 

CPU 0 Branch Prediction Accuracy: 99.3802% MPKI: 1.5948 Average ROB Occupancy at Mispredict: 139.8

ChampSim completed all CPUs

Region of Interest Statistics

CPU 0 cumulative IPC: 0.614252 instructions: 10000001 cycles: 16279973
L1D TOTAL     ACCESS:    5155343  HIT:    4278936  MISS:     876407
L1D LOAD      ACCESS:    1504822  HIT:    1142149  MISS:     362673
L1D RFO       ACCESS:     701288  HIT:     689055  MISS:      12233
L1D PREFETCH  ACCESS:    2949233  HIT:    2447732  MISS:     501501
L1D WRITEBACK ACCESS:          0  HIT:          0  MISS:          0
L1D PREFETCH  REQUESTED:   27457962  ISSUED:   21212301  USEFUL:      95294  USELESS:     453092
L1D AVERAGE MISS LATENCY: 38.3498 cycles
L1I TOTAL     ACCESS:     495166  HIT:     467912  MISS:      27254
L1I LOAD      ACCESS:     495166  HIT:     467912  MISS:      27254
L1I RFO       ACCESS:          0  HIT:          0  MISS:          0
L1I PREFETCH  ACCESS:          0  HIT:          0  MISS:          0
L1I WRITEBACK ACCESS:          0  HIT:          0  MISS:          0
L1I PREFETCH  REQUESTED:          0  ISSUED:          0  USEFUL:          0  USELESS:          0
L1I AVERAGE MISS LATENCY: 18.1673 cycles
L2C TOTAL     ACCESS:    3766104  HIT:    2055043  MISS:    1711061
L2C LOAD      ACCESS:     375288  HIT:     136348  MISS:     238940
L2C RFO       ACCESS:      12143  HIT:       5518  MISS:       6625
L2C PREFETCH  ACCESS:    3354308  HIT:    1888846  MISS:    1465462
L2C WRITEBACK ACCESS:      24365  HIT:      24331  MISS:         34
L2C PREFETCH  REQUESTED:   12753818  ISSUED:    7198297  USEFUL:      62770  USELESS:    1458986
L2C AVERAGE MISS LATENCY: 39.6609 cycles
LLC TOTAL     ACCESS:    1730403  HIT:    1673037  MISS:      57366
LLC LOAD      ACCESS:     235427  HIT:     231418  MISS:       4009
LLC RFO       ACCESS:       6510  HIT:       1609  MISS:       4901
LLC PREFETCH  ACCESS:    1469090  HIT:    1420636  MISS:      48454
LLC WRITEBACK ACCESS:      19376  HIT:      19374  MISS:          2
LLC PREFETCH  REQUESTED:          0  ISSUED:          0  USEFUL:       2194  USELESS:      35291
LLC AVERAGE MISS LATENCY: 206.449 cycles
Major fault: 0 Minor fault: 2374

L1D -512>	(6,2)	(1,74)	(0,71)	(-422,1)	(312,1)	(-5,51)	(5,16)	(2,110)	(4,8)	(-6,4)	(43,1)	(-4,6)	(-7,2)	(-1,2)	(273,1)	(111,1)	
L1D -511>	(2,8)	(1,0)	(7,115)	(8,113)	(4,16)	(5,10)	(6,11)	(3,1)	(1,0)	(1,0)	(1,0)	(1,0)	(1,0)	(1,0)	(1,0)	(1,0)	
L1D -510>	(2,56)	(1,19)	(6,3)	(8,23)	(7,23)	(4,5)	(5,5)	(3,2)	(1,0)	(1,0)	(1,0)	(1,0)	(1,0)	(1,0)	(1,0)	(1,0)	
L1D -509>	(8,22)	(7,29)	(5,3)	(2,1)	(6,3)	(4,4)	(1,0)	(1,0)	(1,0)	(1,0)	(1,0)	(1,0)	(1,0)	(1,0)	(1,0)	(1,0)	
L1D -508>	(4,6)	(7,24)	(8,25)	(6,2)	(2,2)	(5,1)	(1,2)	(1,0)	(1,0)	(1,0)	(1,0)	(1,0)	(1,0)	(1,0)	(1,0)	(1,0)	
L1D -507>	(7,9)	(8,6)	(5,2)	(501,1)	(1,0)	(1,0)	(1,0)	(1,0)	(1,0)	(1,0)	(1,0)	(1,0)	(1,0)	(1,0)	(1,0)	(1,0)	
L1D -506>	(8,9)	(7,14)	(5,3)	(6,2)	(4,1)	(2,1)	(1,0)	(1,0)	(1,0)	(1,0)	(1,0)	(1,0)	(1,0)	(1,0)	(1,0)	(1,0)	
L1D -505>	(14,8)	(9,3)	(7,2)	(4,1)	(8,6)	(1,0)	(1,0)	(1,0)	(1,0)	(1,0)	(1,0)	(1,0)	(1,0)	(1,0)	(1,0)	(1,0)	
L1D -504>	(31,2)	(7,106)	(8,63)	(14,25)	(2,3)	(6,5)	(5,9)	(4,11)	(3,0)	(1,0)	(1,0)	(1,0)	(1,0)	(1,0)	(1,0)	(1,0)	
L1D -503>	(1,0)	(1,0)	(1,0)	(1,0)	(1,0)	(1,0)	(1,0)	(1,0)	(1,0)	(1,0)	(1,0)	(1,0)	(1,0)	(1,0)	(1,0)	(1,0)	
L1D -502>	(7,1)	(1,0)	(1,0)	(1,0)	(1,0)	(1,0)	(1,0)	(1,0)	(1,0)	(1,0)	(1,0)	(1,0)	(1,0)	(1,0)	(1,0)	(1,0)	
L1D -501>	(1,0)	(1,0)	(1,0)	(1,0)	(1,0)	(1,0)	(1,0)	(1,0)	(1,0)	(1,0)	(1,0)	(1,0)	(1,0)	(1,0)	(1,0)	(1,0)	
L1D -500>	(5,1)	(1,0)	(1,0)	(1,0)	(1,0)	(1,0)	(1,0)	(1,0)	(1,0)	(1,0)	(1,0)	(1,0)	(1,0)	(1,0)	(1,0)	(1,0)	
L1D -499>	(15,1)	(1,0)	(1,0)	(1,0)	(1,0)	(1,0)	(1,0)	(1,0)	(1,0)	(1,0)	(1,0)	(1,0)	(1,0)	(1,0)	(1,0)	(1,0)	
L1D -498>	(8,1)	(1,0)	(1,0)	(1,0)	(1,0)	(1,0)	(1,0)	(1,0)	(1,0)	(1,0)	(1,0)	(1,0)	(1,0)	(1,0)	(1,0)	(1,0)	
L1D -497>	(31,98)	(0,1)	(1,0)	(1,0)	(1,0)	(1,0)	(1,0)	(1,0)	(1,0)	(1,0)	(1,0)	(1,0)	(1,0)	(1,0)	(1,0)	(1,0)	
L1D -496>	(7,1)	(1,0)	(1,0)	(1,0)	(1,0)	(1,0)	(1,0)	(1,0)	(1,0)	(1,0)	(1,0)	(1,0)	(1,0)	(1,0)	(1,0)	(1,0)	
L1D -495>	(1,0)	(1,0)	(1,0)	(1,0)	(1,0)	(1,0)	(1,0)	(1,0)	(1,0)	(1,0)	(1,0)	(1,0)	(1,0)	(1,0)	(1,0)	(1,0)	
L1D -494>	(7,1)	(1,0)	(1,0)	(1,0)	(1,0)	(1,0)	(1,0)	(1,0)	(1,0)	(1,0)	(1,0)	(1,0)	(1,0)	(1,0)	(1,0)	(1,0)	
L1D -493>	(2,1)	(1,0)	(1,0)	(1,0)	(1,0)	(1,0)	(1,0)	(1,0)	(1,0)	(1,0)	(1,0)	(1,0)	(1,0)	(1,0)	(1,0)	(1,0)	
L1D -492>	(5,1)	(1,0)	(1,0)	(1,0)	(1,0)	(1,0)	(1,0)	(1,0)	(1,0)	(1,0)	(1,0)	(1,0)	(1,0)	(1,0)	(1,0)	(1,0)	
L1D -491>	(1,0)	(1,0)	(1,0)	(1,0)	(1,0)	(1,0)	(1,0)	(1,0)	(1,0)	(1,0)	(1,0)	(1,0)	(1,0)	(1,0)	(1,0)	(1,0)	
L1D -490>	(8,1)	(1,0)	(1,0)	(1,0)	(1,0)	(1,0)	(1,0)	(1,0)	(1,0)	(1,0)	(1,0)	(1,0)	(1,0)	(1,0)	(1,0)	(1,0)	
L1D -489>	(2,1)	(1,0)	(1,0)	(1,0)	(1,0)	(1,0)	(1,0)	(1,0)	(1,0)	(1,0)	(1,0)	(1,0)	(1,0)	(1,0)	(1,0)	(1,0)	
L1D -488>	(7,1)	(1,0)	(1,0)	(1,0)	(1,0)	(1,0)	(1,0)	(1,0)	(1,0)	(1,0)	(1,0)	(1,0)	(1,0)	(1,0)	(1,0)	(1,0)	
L1D -487>	(1,0)	(1,0)	(1,0)	(1,0)	(1,0)	(1,0)	(1,0)	(1,0)	(1,0)	(1,0)	(1,0)	(1,0)	(1,0)	(1,0)	(1,0)	(1,0)	
L1D -486>	(7,1)	(1,0)	(1,0)	(1,0)	(1,0)	(1,0)	(1,0)	(1,0)	(1,0)	(1,0)	(1,0)	(1,0)	(1,0)	(1,0)	(1,0)	(1,0)	
L1D -485>	(1,0)	(1,0)	(1,0)	(1,0)	(1,0)	(1,0)	(1,0)	(1,0)	(1,0)	(1,0)	(1,0)	(1,0)	(1,0)	(1,0)	(1,0)	(1,0)	
L1D -484>	(8,1)	(494,1)	(4,1)	(1,0)	(1,0)	(1,0)	(1,0)	(1,0)	(1,0)	(1,0)	(1,0)	(1,0)	(1,0)	(1,0)	(1,0)	(1,0)	
L1D -483>	(1,0)	(1,0)	(1,0)	(1,0)	(1,0)	(1,0)	(1,0)	(1,0)	(1,0)	(1,0)	(1,0)	(1,0)	(1,0)	(1,0)	(1,0)	(1,0)	
L1D -482>	(8,1)	(1,0)	(1,0)	(1,0)	(1,0)	(1,0)	(1,0)	(1,0)	(1,0)	(1,0)	(1,0)	(1,0)	(1,0)	(1,0)	(1,0)	(1,0)	
L1D -481>	(0,1)	(1,0)	(1,0)	(1,0)	(1,0)	(1,0)	(1,0)	(1,0)	(1,0)	(1,0)	(1,0)	(1,0)	(1,0)	(1,0)	(1,0)	(1,0)	
L1D -480>	(8,1)	(0,2)	(1,0)	(1,0)	(1,0)	(1,0)	(1,0)	(1,0)	(1,0)	(1,0)	(1,0)	(1,0)	(1,0)	(1,0)	(1,0)	(1,0)	
L1D -479>	(2,1)	(1,0)	(1,0)	(1,0)	(1,0)	(1,0)	(1,0)	(1,0)	(1,0)	(1,0)	(1,0)	(1,0)	(1,0)	(1,0)	(1,0)	(1,0)	
L1D -478>	(1,1)	(1,0)	(1,0)	(1,0)	(1,0)	(1,0)	(1,0)	(1,0)	(1,0)	(1,0)	(1,0)	(1,0)	(1,0)	(1,0)	(1,0)	(1,0)	
L1D -477>	(415,1)	(1,0)	(1,0)	(1,0)	(1,0)	(1,0)	(1,0)	(1,0)	(1,0)	(1,0)	(1,0)	(1,0)	(1,0)	(1,0)	(1,0)	(1,0)	
L1D -476>	(8,1)	(1,0)	(1,0)	(1,0)	(1,0)	(1,0)	(1,0)	(1,0)	(1,0)	(1,0)	(1,0)	(1,0)	(1,0)	(1,0)	(1,0)	(1,0)	
L1D -475>	(1,0)	(1,0)	(1,0)	(1,0)	(1,0)	(1,0)	(1,0)	(1,0)	(1,0)	(1,0)	(1,0)	(1,0)	(1,0)	(1,0)	(1,0)	(1,0)	
L1D -474>	(8,1)	(473,1)	(1,0)	(1,0)	(1,0)	(1,0)	(1,0)	(1,0)	(1,0)	(1,0)	(1,0)	(1,0)	(1,0)	(1,0)	(1,0)	(1,0)	
L1D -473>	(473,102)	(2,6)	(1,0)	(1,0)	(1,0)	(1,0)	(1,0)	(1,0)	(1,0)	(1,0)	(1,0)	(1,0)	(1,0)	(1,0)	(1,0)	(1,0)	
L1D -472>	(8,1)	(1,0)	(1,0)	(1,0)	(1,0)	(1,0)	(1,0)	(1,0)	(1,0)	(1,0)	(1,0)	(1,0)	(1,0)	(1,0)	(1,0)	(1,0)	
L1D -471>	(1,0)	(1,0)	(1,0)	(1,0)	(1,0)	(1,0)	(1,0)	(1,0)	(1,0)	(1,0)	(1,0)	(1,0)	(1,0)	(1,0)	(1,0)	(1,0)	
L1D -470>	(477,2)	(8,1)	(0,1)	(1,0)	(1,0)	(1,0)	(1,0)	(1,0)	(1,0)	(1,0)	(1,0)	(1,0)	(1,0)	(1,0)	(1,0)	(1,0)	
L1D -469>	(477,105)	(2,1)	(1,1)	(1,0)	(1,0)	(1,0)	(1,0)	(1,0)	(1,0)	(1,0)	(1,0)	(1,0)	(1,0)	(1,0)	(1,0)	(1,0)	
L1D -468>	(4,1)	(1,0)	(1,0)	(1,0)	(1,0)	(1,0)	(1,0)	(1,0)	(1,0)	(1,0)	(1,0)	(1,0)	(1,0)	(1,0)	(1,0)	(1,0)	
L1D -467>	(1,0)	(1,0)	(1,0)	(1,0)	(1,0)	(1,0)	(1,0)	(1,0)	(1,0)	(1,0)	(1,0)	(1,0)	(1,0)	(1,0)	(1,0)	(1,0)	
L1D -466>	(8,1)	(1,0)	(1,0)	(1,0)	(1,0)	(1,0)	(1,0)	(1,0)	(1,0)	(1,0)	(1,0)	(1,0)	(1,0)	(1,0)	(1,0)	(1,0)	
L1D -465>	(1,0)	(1,0)	(1,0)	(1,0)	(1,0)	(1,0)	(1,0)	(1,0)	(1,0)	(1,0)	(1,0)	(1,0)	(1,0)	(1,0)	(1,0)	(1,0)	
L1D -464>	(3,1)	(108,1)	(1,0)	(1,0)	(1,0)	(1,0)	(1,0)	(1,0)	(1,0)	(1,0)	(1,0)	(1,0)	(1,0)	(1,0)	(1,0)	(1,0)	
L1D -463>	(1,0)	(1,0)	(1,0)	(1,0)	(1,0)	(1,0)	(1,0)	(1,0)	(1,0)	(1,0)	(1,0)	(1,0)	(1,0)	(1,0)	(1,0)	(1,0)	
L1D -462>	(8,1)	(450,1)	(1,0)	(1,0)	(1,0)	(1,0)	(1,0)	(1,0)	(1,0)	(1,0)	(1,0)	(1,0)	(1,0)	(1,0)	(1,0)	(1,0)	
L1D -461>	(1,0)	(1,0)	(1,0)	(1,0)	(1,0)	(1,0)	(1,0)	(1,0)	(1,0)	(1,0)	(1,0)	(1,0)	(1,0)	(1,0)	(1,0)	(1,0)	
L1D -460>	(2,1)	(440,1)	(505,1)	(1,0)	(1,0)	(1,0)	(1,0)	(1,0)	(1,0)	(1,0)	(1,0)	(1,0)	(1,0)	(1,0)	(1,0)	(1,0)	
L1D -459>	(1,0)	(1,0)	(1,0)	(1,0)	(1,0)	(1,0)	(1,0)	(1,0)	(1,0)	(1,0)	(1,0)	(1,0)	(1,0)	(1,0)	(1,0)	(1,0)	
L1D -458>	(7,1)	(2,1)	(1,0)	(1,0)	(1,0)	(1,0)	(1,0)	(1,0)	(1,0)	(1,0)	(1,0)	(1,0)	(1,0)	(1,0)	(1,0)	(1,0)	
L1D -457>	(1,0)	(1,0)	(1,0)	(1,0)	(1,0)	(1,0)	(1,0)	(1,0)	(1,0)	(1,0)	(1,0)	(1,0)	(1,0)	(1,0)	(1,0)	(1,0)	
L1D -456>	(8,1)	(1,0)	(1,0)	(1,0)	(1,0)	(1,0)	(1,0)	(1,0)	(1,0)	(1,0)	(1,0)	(1,0)	(1,0)	(1,0)	(1,0)	(1,0)	
L1D -455>	(0,104)	(446,0)	(1,0)	(1,0)	(1,0)	(1,0)	(1,0)	(1,0)	(1,0)	(1,0)	(1,0)	(1,0)	(1,0)	(1,0)	(1,0)	(1,0)	
L1D -454>	(8,1)	(84,1)	(1,0)	(1,0)	(1,0)	(1,0)	(1,0)	(1,0)	(1,0)	(1,0)	(1,0)	(1,0)	(1,0)	(1,0)	(1,0)	(1,0)	
L1D -453>	(1,0)	(1,0)	(1,0)	(1,0)	(1,0)	(1,0)	(1,0)	(1,0)	(1,0)	(1,0)	(1,0)	(1,0)	(1,0)	(1,0)	(1,0)	(1,0)	
L1D -452>	(84,97)	(-7,5)	(8,1)	(2,12)	(1,0)	(1,0)	(1,0)	(1,0)	(1,0)	(1,0)	(1,0)	(1,0)	(1,0)	(1,0)	(1,0)	(1,0)	
L1D -451>	(449,2)	(1,0)	(1,0)	(1,0)	(1,0)	(1,0)	(1,0)	(1,0)	(1,0)	(1,0)	(1,0)	(1,0)	(1,0)	(1,0)	(1,0)	(1,0)	
L1D -450>	(-7,100)	(8,10)	(2,5)	(6,1)	(326,4)	(1,0)	(1,0)	(1,0)	(1,0)	(1,0)	(1,0)	(1,0)	(1,0)	(1,0)	(1,0)	(1,0)	
L1D -449>	(449,104)	(8,100)	(1,0)	(1,0)	(1,0)	(1,0)	(1,0)	(1,0)	(1,0)	(1,0)	(1,0)	(1,0)	(1,0)	(1,0)	(1,0)	(1,0)	
L1D -448>	(2,13)	(326,100)	(336,1)	(1,0)	(1,0)	(1,0)	(1,0)	(1,0)	(1,0)	(1,0)	(1,0)	(1,0)	(1,0)	(1,0)	(1,0)	(1,0)	
L1D -447>	(2,102)	(461,1)	(1,0)	(1,0)	(1,0)	(1,0)	(1,0)	(1,0)	(1,0)	(1,0)	(1,0)	(1,0)	(1,0)	(1,0)	(1,0)	(1,0)	
L1D -446>	(455,85)	(6,0)	(1,0)	(1,0)	(1,0)	(1,0)	(1,0)	(1,0)	(1,0)	(1,0)	(1,0)	(1,0)	(1,0)	(1,0)	(1,0)	(1,0)	
L1D -445>	(439,100)	(1,3)	(1,0)	(1,0)	(1,0)	(1,0)	(1,0)	(1,0)	(1,0)	(1,0)	(1,0)	(1,0)	(1,0)	(1,0)	(1,0)	(1,0)	
L1D -444>	(8,1)	(1,1)	(1,0)	(1,0)	(1,0)	(1,0)	(1,0)	(1,0)	(1,0)	(1,0)	(1,0)	(1,0)	(1,0)	(1,0)	(1,0)	(1,0)	
L1D -443>	(0,1)	(1,0)	(1,0)	(1,0)	(1,0)	(1,0)	(1,0)	(1,0)	(1,0)	(1,0)	(1,0)	(1,0)	(1,0)	(1,0)	(1,0)	(1,0)	
L1D -442>	(7,1)	(1,0)	(1,0)	(1,0)	(1,0)	(1,0)	(1,0)	(1,0)	(1,0)	(1,0)	(1,0)	(1,0)	(1,0)	(1,0)	(1,0)	(1,0)	
L1D -441>	(439,6)	(1,91)	(6,3)	(1,0)	(1,0)	(1,0)	(1,0)	(1,0)	(1,0)	(1,0)	(1,0)	(1,0)	(1,0)	(1,0)	(1,0)	(1,0)	
L1D -440>	(6,105)	(1,1)	(50,5)	(8,1)	(1,0)	(1,0)	(1,0)	(1,0)	(1,0)	(1,0)	(1,0)	(1,0)	(1,0)	(1,0)	(1,0)	(1,0)	
L1D -439>	(1,0)	(1,0)	(1,0)	(1,0)	(1,0)	(1,0)	(1,0)	(1,0)	(1,0)	(1,0)	(1,0)	(1,0)	(1,0)	(1,0)	(1,0)	(1,0)	
L1D -438>	(0,9)	(50,62)	(2,1)	(8,1)	(1,0)	(1,0)	(1,0)	(1,0)	(1,0)	(1,0)	(1,0)	(1,0)	(1,0)	(1,0)	(1,0)	(1,0)	
L1D -437>	(1,4)	(1,0)	(1,0)	(1,0)	(1,0)	(1,0)	(1,0)	(1,0)	(1,0)	(1,0)	(1,0)	(1,0)	(1,0)	(1,0)	(1,0)	(1,0)	
L1D -436>	(5,1)	(1,0)	(1,0)	(1,0)	(1,0)	(1,0)	(1,0)	(1,0)	(1,0)	(1,0)	(1,0)	(1,0)	(1,0)	(1,0)	(1,0)	(1,0)	
L1D -435>	(1,15)	(1,0)	(1,0)	(1,0)	(1,0)	(1,0)	(1,0)	(1,0)	(1,0)	(1,0)	(1,0)	(1,0)	(1,0)	(1,0)	(1,0)	(1,0)	
L1D -434>	(7,1)	(1,0)	(1,0)	(1,0)	(1,0)	(1,0)	(1,0)	(1,0)	(1,0)	(1,0)	(1,0)	(1,0)	(1,0)	(1,0)	(1,0)	(1,0)	
L1D -433>	(-5,1)	(405,2)	(1,0)	(1,0)	(1,0)	(1,0)	(1,0)	(1,0)	(1,0)	(1,0)	(1,0)	(1,0)	(1,0)	(1,0)	(1,0)	(1,0)	
L1D -432>	(8,1)	(1,0)	(1,0)	(1,0)	(1,0)	(1,0)	(1,0)	(1,0)	(1,0)	(1,0)	(1,0)	(1,0)	(1,0)	(1,0)	(1,0)	(1,0)	
L1D -431>	(1,0)	(1,0)	(1,0)	(1,0)	(1,0)	(1,0)	(1,0)	(1,0)	(1,0)	(1,0)	(1,0)	(1,0)	(1,0)	(1,0)	(1,0)	(1,0)	
L1D -430>	(7,1)	(1,0)	(1,0)	(1,0)	(1,0)	(1,0)	(1,0)	(1,0)	(1,0)	(1,0)	(1,0)	(1,0)	(1,0)	(1,0)	(1,0)	(1,0)	
L1D -429>	(15,1)	(1,0)	(1,0)	(1,0)	(1,0)	(1,0)	(1,0)	(1,0)	(1,0)	(1,0)	(1,0)	(1,0)	(1,0)	(1,0)	(1,0)	(1,0)	
L1D -428>	(7,1)	(0,1)	(1,0)	(1,0)	(1,0)	(1,0)	(1,0)	(1,0)	(1,0)	(1,0)	(1,0)	(1,0)	(1,0)	(1,0)	(1,0)	(1,0)	
L1D -427>	(-8,1)	(1,0)	(1,0)	(1,0)	(1,0)	(1,0)	(1,0)	(1,0)	(1,0)	(1,0)	(1,0)	(1,0)	(1,0)	(1,0)	(1,0)	(1,0)	
L1D -426>	(8,1)	(-41,1)	(0,1)	(68,1)	(1,0)	(1,0)	(1,0)	(1,0)	(1,0)	(1,0)	(1,0)	(1,0)	(1,0)	(1,0)	(1,0)	(1,0)	
L1D -425>	(405,1)	(1,0)	(1,0)	(1,0)	(1,0)	(1,0)	(1,0)	(1,0)	(1,0)	(1,0)	(1,0)	(1,0)	(1,0)	(1,0)	(1,0)	(1,0)	
L1D -424>	(405,105)	(408,3)	(1,2)	(8,1)	(414,1)	(1,0)	(1,0)	(1,0)	(1,0)	(1,0)	(1,0)	(1,0)	(1,0)	(1,0)	(1,0)	(1,0)	
L1D -423>	(408,104)	(2,1)	(1,0)	(1,0)	(1,0)	(1,0)	(1,0)	(1,0)	(1,0)	(1,0)	(1,0)	(1,0)	(1,0)	(1,0)	(1,0)	(1,0)	
L1D -422>	(7,1)	(1,0)	(1,0)	(1,0)	(1,0)	(1,0)	(1,0)	(1,0)	(1,0)	(1,0)	(1,0)	(1,0)	(1,0)	(1,0)	(1,0)	(1,0)	
L1D -421>	(1,0)	(1,0)	(1,0)	(1,0)	(1,0)	(1,0)	(1,0)	(1,0)	(1,0)	(1,0)	(1,0)	(1,0)	(1,0)	(1,0)	(1,0)	(1,0)	
L1D -420>	(8,1)	(0,1)	(1,0)	(1,0)	(1,0)	(1,0)	(1,0)	(1,0)	(1,0)	(1,0)	(1,0)	(1,0)	(1,0)	(1,0)	(1,0)	(1,0)	
L1D -419>	(1,1)	(1,0)	(1,0)	(1,0)	(1,0)	(1,0)	(1,0)	(1,0)	(1,0)	(1,0)	(1,0)	(1,0)	(1,0)	(1,0)	(1,0)	(1,0)	
L1D -418>	(8,1)	(1,0)	(1,0)	(1,0)	(1,0)	(1,0)	(1,0)	(1,0)	(1,0)	(1,0)	(1,0)	(1,0)	(1,0)	(1,0)	(1,0)	(1,0)	
L1D -417>	(1,109)	(1,0)	(1,0)	(1,0)	(1,0)	(1,0)	(1,0)	(1,0)	(1,0)	(1,0)	(1,0)	(1,0)	(1,0)	(1,0)	(1,0)	(1,0)	
L1D -416>	(15,103)	(2,3)	(0,2)	(7,1)	(1,0)	(1,0)	(1,0)	(1,0)	(1,0)	(1,0)	(1,0)	(1,0)	(1,0)	(1,0)	(1,0)	(1,0)	
L1D -415>	(480,1)	(1,0)	(1,0)	(1,0)	(1,0)	(1,0)	(1,0)	(1,0)	(1,0)	(1,0)	(1,0)	(1,0)	(1,0)	(1,0)	(1,0)	(1,0)	
L1D -414>	(-5,1)	(7,1)	(15,1)	(1,0)	(1,0)	(1,0)	(1,0)	(1,0)	(1,0)	(1,0)	(1,0)	(1,0)	(1,0)	(1,0)	(1,0)	(1,0)	
L1D -413>	(1,0)	(1,0)	(1,0)	(1,0)	(1,0)	(1,0)	(1,0)	(1,0)	(1,0)	(1,0)	(1,0)	(1,0)	(1,0)	(1,0)	(1,0)	(1,0)	
L1D -412>	(1,44)	(7,1)	(1,0)	(1,0)	(1,0)	(1,0)	(1,0)	(1,0)	(1,0)	(1,0)	(1,0)	(1,0)	(1,0)	(1,0)	(1,0)	(1,0)	
L1D -411>	(-6,3)	(1,61)	(260,1)	(1,0)	(1,0)	(1,0)	(1,0)	(1,0)	(1,0)	(1,0)	(1,0)	(1,0)	(1,0)	(1,0)	(1,0)	(1,0)	
L1D -410>	(1,35)	(-6,107)	(2,110)	(411,2)	(7,1)	(89,1)	(1,0)	(1,0)	(1,0)	(1,0)	(1,0)	(1,0)	(1,0)	(1,0)	(1,0)	(1,0)	
L1D -409>	(3,10)	(410,1)	(-5,1)	(1,0)	(1,0)	(1,0)	(1,0)	(1,0)	(1,0)	(1,0)	(1,0)	(1,0)	(1,0)	(1,0)	(1,0)	(1,0)	
L1D -408>	(1,124)	(-3,1)	(391,3)	(1,0)	(1,0)	(1,0)	(1,0)	(1,0)	(1,0)	(1,0)	(1,0)	(1,0)	(1,0)	(1,0)	(1,0)	(1,0)	
L1D -407>	(391,1)	(1,0)	(1,0)	(1,0)	(1,0)	(1,0)	(1,0)	(1,0)	(1,0)	(1,0)	(1,0)	(1,0)	(1,0)	(1,0)	(1,0)	(1,0)	
L1D -406>	(407,0)	(1,88)	(8,0)	(1,0)	(1,0)	(1,0)	(1,0)	(1,0)	(1,0)	(1,0)	(1,0)	(1,0)	(1,0)	(1,0)	(1,0)	(1,0)	
L1D -405>	(1,0)	(1,0)	(1,0)	(1,0)	(1,0)	(1,0)	(1,0)	(1,0)	(1,0)	(1,0)	(1,0)	(1,0)	(1,0)	(1,0)	(1,0)	(1,0)	
L1D -404>	(1,109)	(8,1)	(5,1)	(2,1)	(1,0)	(1,0)	(1,0)	(1,0)	(1,0)	(1,0)	(1,0)	(1,0)	(1,0)	(1,0)	(1,0)	(1,0)	
L1D -403>	(-5,1)	(1,0)	(1,0)	(1,0)	(1,0)	(1,0)	(1,0)	(1,0)	(1,0)	(1,0)	(1,0)	(1,0)	(1,0)	(1,0)	(1,0)	(1,0)	
L1D -402>	(7,1)	(1,0)	(1,0)	(1,0)	(1,0)	(1,0)	(1,0)	(1,0)	(1,0)	(1,0)	(1,0)	(1,0)	(1,0)	(1,0)	(1,0)	(1,0)	
L1D -401>	(-5,7)	(0,1)	(1,3)	(1,0)	(1,0)	(1,0)	(1,0)	(1,0)	(1,0)	(1,0)	(1,0)	(1,0)	(1,0)	(1,0)	(1,0)	(1,0)	
L1D -400>	(8,1)	(1,1)	(1,0)	(1,0)	(1,0)	(1,0)	(1,0)	(1,0)	(1,0)	(1,0)	(1,0)	(1,0)	(1,0)	(1,0)	(1,0)	(1,0)	
L1D -399>	(1,22)	(-5,102)	(0,1)	(32,1)	(1,0)	(1,0)	(1,0)	(1,0)	(1,0)	(1,0)	(1,0)	(1,0)	(1,0)	(1,0)	(1,0)	(1,0)	
L1D -398>	(7,1)	(0,1)	(1,0)	(1,0)	(1,0)	(1,0)	(1,0)	(1,0)	(1,0)	(1,0)	(1,0)	(1,0)	(1,0)	(1,0)	(1,0)	(1,0)	
L1D -397>	(1,79)	(1,0)	(1,0)	(1,0)	(1,0)	(1,0)	(1,0)	(1,0)	(1,0)	(1,0)	(1,0)	(1,0)	(1,0)	(1,0)	(1,0)	(1,0)	
L1D -396>	(5,110)	(1,16)	(8,1)	(1,0)	(1,0)	(1,0)	(1,0)	(1,0)	(1,0)	(1,0)	(1,0)	(1,0)	(1,0)	(1,0)	(1,0)	(1,0)	
L1D -395>	(1,2)	(1,0)	(1,0)	(1,0)	(1,0)	(1,0)	(1,0)	(1,0)	(1,0)	(1,0)	(1,0)	(1,0)	(1,0)	(1,0)	(1,0)	(1,0)	
L1D -394>	(1,86)	(2,0)	(1,0)	(1,0)	(1,0)	(1,0)	(1,0)	(1,0)	(1,0)	(1,0)	(1,0)	(1,0)	(1,0)	(1,0)	(1,0)	(1,0)	
L1D -393>	(1,40)	(-6,8)	(1,0)	(1,0)	(1,0)	(1,0)	(1,0)	(1,0)	(1,0)	(1,0)	(1,0)	(1,0)	(1,0)	(1,0)	(1,0)	(1,0)	
L1D -392>	(1,8)	(8,1)	(1,0)	(1,0)	(1,0)	(1,0)	(1,0)	(1,0)	(1,0)	(1,0)	(1,0)	(1,0)	(1,0)	(1,0)	(1,0)	(1,0)	
L1D -391>	(1,3)	(1,0)	(1,0)	(1,0)	(1,0)	(1,0)	(1,0)	(1,0)	(1,0)	(1,0)	(1,0)	(1,0)	(1,0)	(1,0)	(1,0)	(1,0)	
L1D -390>	(8,1)	(2,1)	(1,0)	(1,0)	(1,0)	(1,0)	(1,0)	(1,0)	(1,0)	(1,0)	(1,0)	(1,0)	(1,0)	(1,0)	(1,0)	(1,0)	
L1D -389>	(2,44)	(1,1)	(379,1)	(1,0)	(1,0)	(1,0)	(1,0)	(1,0)	(1,0)	(1,0)	(1,0)	(1,0)	(1,0)	(1,0)	(1,0)	(1,0)	
L1D -388>	(7,1)	(1,0)	(1,0)	(1,0)	(1,0)	(1,0)	(1,0)	(1,0)	(1,0)	(1,0)	(1,0)	(1,0)	(1,0)	(1,0)	(1,0)	(1,0)	
L1D -387>	(-6,87)	(-8,0)	(15,0)	(1,0)	(1,0)	(1,0)	(1,0)	(1,0)	(1,0)	(1,0)	(1,0)	(1,0)	(1,0)	(1,0)	(1,0)	(1,0)	
L1D -386>	(7,1)	(-5,1)	(1,0)	(1,0)	(1,0)	(1,0)	(1,0)	(1,0)	(1,0)	(1,0)	(1,0)	(1,0)	(1,0)	(1,0)	(1,0)	(1,0)	
L1D -385>	(370,4)	(-8,2)	(1,0)	(1,0)	(1,0)	(1,0)	(1,0)	(1,0)	(1,0)	(1,0)	(1,0)	(1,0)	(1,0)	(1,0)	(1,0)	(1,0)	
L1D -384>	(1,65)	(8,0)	(1,0)	(1,0)	(1,0)	(1,0)	(1,0)	(1,0)	(1,0)	(1,0)	(1,0)	(1,0)	(1,0)	(1,0)	(1,0)	(1,0)	
L1D -383>	(1,9)	(7,1)	(1,0)	(1,0)	(1,0)	(1,0)	(1,0)	(1,0)	(1,0)	(1,0)	(1,0)	(1,0)	(1,0)	(1,0)	(1,0)	(1,0)	
L1D -382>	(381,1)	(1,3)	(7,1)	(2,3)	(353,1)	(8,2)	(1,0)	(1,0)	(1,0)	(1,0)	(1,0)	(1,0)	(1,0)	(1,0)	(1,0)	(1,0)	
L1D -381>	(41,86)	(2,53)	(8,1)	(3,0)	(1,0)	(1,0)	(1,0)	(1,0)	(1,0)	(1,0)	(1,0)	(1,0)	(1,0)	(1,0)	(1,0)	(1,0)	
L1D -380>	(-5,2)	(8,2)	(7,1)	(1,0)	(1,0)	(1,0)	(1,0)	(1,0)	(1,0)	(1,0)	(1,0)	(1,0)	(1,0)	(1,0)	(1,0)	(1,0)	
L1D -379>	(-5,2)	(7,1)	(1,0)	(1,0)	(1,0)	(1,0)	(1,0)	(1,0)	(1,0)	(1,0)	(1,0)	(1,0)	(1,0)	(1,0)	(1,0)	(1,0)	
L1D -378>	(-5,4)	(379,114)	(7,3)	(1,0)	(1,0)	(1,0)	(1,0)	(1,0)	(1,0)	(1,0)	(1,0)	(1,0)	(1,0)	(1,0)	(1,0)	(1,0)	
L1D -377>	(8,1)	(1,1)	(106,1)	(1,0)	(1,0)	(1,0)	(1,0)	(1,0)	(1,0)	(1,0)	(1,0)	(1,0)	(1,0)	(1,0)	(1,0)	(1,0)	
L1D -376>	(7,2)	(8,1)	(1,0)	(1,0)	(1,0)	(1,0)	(1,0)	(1,0)	(1,0)	(1,0)	(1,0)	(1,0)	(1,0)	(1,0)	(1,0)	(1,0)	
L1D -375>	(7,1)	(70,1)	(390,1)	(1,0)	(1,0)	(1,0)	(1,0)	(1,0)	(1,0)	(1,0)	(1,0)	(1,0)	(1,0)	(1,0)	(1,0)	(1,0)	
L1D -374>	(1,10)	(2,1)	(374,1)	(7,1)	(9,1)	(0,1)	(4,1)	(5,1)	(1,0)	(1,0)	(1,0)	(1,0)	(1,0)	(1,0)	(1,0)	(1,0)	
L1D -373>	(7,1)	(1,0)	(1,0)	(1,0)	(1,0)	(1,0)	(1,0)	(1,0)	(1,0)	(1,0)	(1,0)	(1,0)	(1,0)	(1,0)	(1,0)	(1,0)	
L1D -372>	(1,103)	(373,1)	(2,2)	(5,1)	(8,1)	(1,0)	(1,0)	(1,0)	(1,0)	(1,0)	(1,0)	(1,0)	(1,0)	(1,0)	(1,0)	(1,0)	
L1D -371>	(1,17)	(372,2)	(8,1)	(1,0)	(1,0)	(1,0)	(1,0)	(1,0)	(1,0)	(1,0)	(1,0)	(1,0)	(1,0)	(1,0)	(1,0)	(1,0)	
L1D -370>	(8,1)	(1,1)	(7,2)	(1,0)	(1,0)	(1,0)	(1,0)	(1,0)	(1,0)	(1,0)	(1,0)	(1,0)	(1,0)	(1,0)	(1,0)	(1,0)	
L1D -369>	(1,112)	(8,1)	(-5,1)	(1,0)	(1,0)	(1,0)	(1,0)	(1,0)	(1,0)	(1,0)	(1,0)	(1,0)	(1,0)	(1,0)	(1,0)	(1,0)	
L1D -368>	(1,3)	(367,92)	(7,2)	(2,3)	(8,1)	(5,1)	(1,0)	(1,0)	(1,0)	(1,0)	(1,0)	(1,0)	(1,0)	(1,0)	(1,0)	(1,0)	
L1D -367>	(1,96)	(2,118)	(369,2)	(367,2)	(368,12)	(7,1)	(1,0)	(1,0)	(1,0)	(1,0)	(1,0)	(1,0)	(1,0)	(1,0)	(1,0)	(1,0)	
L1D -366>	(367,27)	(2,29)	(-6,1)	(4,1)	(409,1)	(7,1)	(8,1)	(1,0)	(1,0)	(1,0)	(1,0)	(1,0)	(1,0)	(1,0)	(1,0)	(1,0)	
L1D -365>	(1,6)	(0,8)	(369,91)	(7,1)	(355,1)	(1,0)	(1,0)	(1,0)	(1,0)	(1,0)	(1,0)	(1,0)	(1,0)	(1,0)	(1,0)	(1,0)	
L1D -364>	(364,1)	(2,106)	(7,2)	(373,1)	(8,1)	(367,1)	(1,0)	(1,0)	(1,0)	(1,0)	(1,0)	(1,0)	(1,0)	(1,0)	(1,0)	(1,0)	
L1D -363>	(1,17)	(7,1)	(-8,1)	(1,0)	(1,0)	(1,0)	(1,0)	(1,0)	(1,0)	(1,0)	(1,0)	(1,0)	(1,0)	(1,0)	(1,0)	(1,0)	
L1D -362>	(4,1)	(10,1)	(1,2)	(2,2)	(0,2)	(7,1)	(1,0)	(1,0)	(1,0)	(1,0)	(1,0)	(1,0)	(1,0)	(1,0)	(1,0)	(1,0)	
L1D -361>	(1,113)	(-8,106)	(362,1)	(7,1)	(1,0)	(1,0)	(1,0)	(1,0)	(1,0)	(1,0)	(1,0)	(1,0)	(1,0)	(1,0)	(1,0)	(1,0)	
L1D -360>	(7,2)	(4,1)	(1,0)	(1,0)	(1,0)	(1,0)	(1,0)	(1,0)	(1,0)	(1,0)	(1,0)	(1,0)	(1,0)	(1,0)	(1,0)	(1,0)	
L1D -359>	(12,5)	(8,1)	(2,1)	(1,0)	(1,0)	(1,0)	(1,0)	(1,0)	(1,0)	(1,0)	(1,0)	(1,0)	(1,0)	(1,0)	(1,0)	(1,0)	
L1D -358>	(-35,102)	(358,5)	(-36,6)	(7,2)	(2,1)	(0,3)	(1,0)	(1,0)	(1,0)	(1,0)	(1,0)	(1,0)	(1,0)	(1,0)	(1,0)	(1,0)	
L1D -357>	(12,104)	(2,9)	(409,100)	(1,3)	(8,1)	(1,0)	(1,0)	(1,0)	(1,0)	(1,0)	(1,0)	(1,0)	(1,0)	(1,0)	(1,0)	(1,0)	
L1D -356>	(85,101)	(2,9)	(8,1)	(7,2)	(1,0)	(1,0)	(1,0)	(1,0)	(1,0)	(1,0)	(1,0)	(1,0)	(1,0)	(1,0)	(1,0)	(1,0)	
L1D -355>	(1,108)	(7,1)	(1,0)	(1,0)	(1,0)	(1,0)	(1,0)	(1,0)	(1,0)	(1,0)	(1,0)	(1,0)	(1,0)	(1,0)	(1,0)	(1,0)	
L1D -354>	(4,2)	(8,1)	(1,1)	(7,1)	(3,1)	(1,0)	(1,0)	(1,0)	(1,0)	(1,0)	(1,0)	(1,0)	(1,0)	(1,0)	(1,0)	(1,0)	
L1D -353>	(1,110)	(0,1)	(7,1)	(1,0)	(1,0)	(1,0)	(1,0)	(1,0)	(1,0)	(1,0)	(1,0)	(1,0)	(1,0)	(1,0)	(1,0)	(1,0)	
L1D -352>	(4,107)	(345,107)	(7,1)	(2,3)	(5,6)	(0,2)	(8,2)	(385,1)	(-5,1)	(1,0)	(1,0)	(1,0)	(1,0)	(1,0)	(1,0)	(1,0)	
L1D -351>	(352,2)	(7,1)	(5,1)	(1,0)	(1,0)	(1,0)	(1,0)	(1,0)	(1,0)	(1,0)	(1,0)	(1,0)	(1,0)	(1,0)	(1,0)	(1,0)	
L1D -350>	(0,2)	(1,10)	(5,97)	(7,2)	(2,3)	(8,1)	(1,0)	(1,0)	(1,0)	(1,0)	(1,0)	(1,0)	(1,0)	(1,0)	(1,0)	(1,0)	
L1D -349>	(2,102)	(-6,5)	(7,1)	(1,0)	(1,0)	(1,0)	(1,0)	(1,0)	(1,0)	(1,0)	(1,0)	(1,0)	(1,0)	(1,0)	(1,0)	(1,0)	
L1D -348>	(2,11)	(8,2)	(322,7)	(5,2)	(-15,1)	(1,0)	(1,0)	(1,0)	(1,0)	(1,0)	(1,0)	(1,0)	(1,0)	(1,0)	(1,0)	(1,0)	
L1D -347>	(5,108)	(2,90)	(-5,2)	(7,1)	(1,0)	(1,0)	(1,0)	(1,0)	(1,0)	(1,0)	(1,0)	(1,0)	(1,0)	(1,0)	(1,0)	(1,0)	
L1D -346>	(322,103)	(8,2)	(7,1)	(1,1)	(1,0)	(1,0)	(1,0)	(1,0)	(1,0)	(1,0)	(1,0)	(1,0)	(1,0)	(1,0)	(1,0)	(1,0)	
L1D -345>	(8,1)	(1,0)	(1,0)	(1,0)	(1,0)	(1,0)	(1,0)	(1,0)	(1,0)	(1,0)	(1,0)	(1,0)	(1,0)	(1,0)	(1,0)	(1,0)	
L1D -344>	(-12,9)	(-4,12)	(-16,96)	(5,1)	(8,1)	(2,2)	(7,1)	(83,1)	(1,0)	(1,0)	(1,0)	(1,0)	(1,0)	(1,0)	(1,0)	(1,0)	
L1D -343>	(2,14)	(-4,96)	(-15,106)	(-12,98)	(-16,3)	(1,2)	(8,1)	(1,0)	(1,0)	(1,0)	(1,0)	(1,0)	(1,0)	(1,0)	(1,0)	(1,0)	
L1D -342>	(-11,91)	(2,7)	(8,1)	(7,2)	(1,0)	(1,0)	(1,0)	(1,0)	(1,0)	(1,0)	(1,0)	(1,0)	(1,0)	(1,0)	(1,0)	(1,0)	
L1D -341>	(1,2)	(-11,12)	(335,101)	(6,108)	(10,1)	(2,7)	(7,1)	(-5,1)	(1,0)	(1,0)	(1,0)	(1,0)	(1,0)	(1,0)	(1,0)	(1,0)	
L1D -340>	(8,2)	(7,1)	(1,0)	(1,0)	(1,0)	(1,0)	(1,0)	(1,0)	(1,0)	(1,0)	(1,0)	(1,0)	(1,0)	(1,0)	(1,0)	(1,0)	
L1D -339>	(452,3)	(7,1)	(1,0)	(1,0)	(1,0)	(1,0)	(1,0)	(1,0)	(1,0)	(1,0)	(1,0)	(1,0)	(1,0)	(1,0)	(1,0)	(1,0)	
L1D -338>	(387,1)	(4,1)	(6,1)	(8,1)	(1,0)	(1,0)	(1,0)	(1,0)	(1,0)	(1,0)	(1,0)	(1,0)	(1,0)	(1,0)	(1,0)	(1,0)	
L1D -337>	(1,5)	(-10,1)	(7,1)	(1,0)	(1,0)	(1,0)	(1,0)	(1,0)	(1,0)	(1,0)	(1,0)	(1,0)	(1,0)	(1,0)	(1,0)	(1,0)	
L1D -336>	(387,59)	(1,106)	(7,1)	(8,1)	(1,0)	(1,0)	(1,0)	(1,0)	(1,0)	(1,0)	(1,0)	(1,0)	(1,0)	(1,0)	(1,0)	(1,0)	
L1D -335>	(7,1)	(1,0)	(1,0)	(1,0)	(1,0)	(1,0)	(1,0)	(1,0)	(1,0)	(1,0)	(1,0)	(1,0)	(1,0)	(1,0)	(1,0)	(1,0)	
L1D -334>	(7,3)	(106,1)	(1,0)	(1,0)	(1,0)	(1,0)	(1,0)	(1,0)	(1,0)	(1,0)	(1,0)	(1,0)	(1,0)	(1,0)	(1,0)	(1,0)	
L1D -333>	(8,1)	(1,1)	(1,0)	(1,0)	(1,0)	(1,0)	(1,0)	(1,0)	(1,0)	(1,0)	(1,0)	(1,0)	(1,0)	(1,0)	(1,0)	(1,0)	
L1D -332>	(1,109)	(7,2)	(8,1)	(1,0)	(1,0)	(1,0)	(1,0)	(1,0)	(1,0)	(1,0)	(1,0)	(1,0)	(1,0)	(1,0)	(1,0)	(1,0)	
L1D -331>	(-10,9)	(7,1)	(392,118)	(0,15)	(9,76)	(1,0)	(1,0)	(1,0)	(1,0)	(1,0)	(1,0)	(1,0)	(1,0)	(1,0)	(1,0)	(1,0)	
L1D -330>	(452,106)	(7,2)	(8,1)	(1,0)	(1,0)	(1,0)	(1,0)	(1,0)	(1,0)	(1,0)	(1,0)	(1,0)	(1,0)	(1,0)	(1,0)	(1,0)	
L1D -329>	(5,1)	(1,0)	(1,0)	(1,0)	(1,0)	(1,0)	(1,0)	(1,0)	(1,0)	(1,0)	(1,0)	(1,0)	(1,0)	(1,0)	(1,0)	(1,0)	
L1D -328>	(8,2)	(7,1)	(1,1)	(1,0)	(1,0)	(1,0)	(1,0)	(1,0)	(1,0)	(1,0)	(1,0)	(1,0)	(1,0)	(1,0)	(1,0)	(1,0)	
L1D -327>	(346,1)	(7,1)	(1,0)	(1,0)	(1,0)	(1,0)	(1,0)	(1,0)	(1,0)	(1,0)	(1,0)	(1,0)	(1,0)	(1,0)	(1,0)	(1,0)	
L1D -326>	(346,108)	(8,2)	(9,3)	(7,1)	(2,1)	(1,1)	(1,0)	(1,0)	(1,0)	(1,0)	(1,0)	(1,0)	(1,0)	(1,0)	(1,0)	(1,0)	
L1D -325>	(9,105)	(2,2)	(7,1)	(-5,1)	(1,0)	(1,0)	(1,0)	(1,0)	(1,0)	(1,0)	(1,0)	(1,0)	(1,0)	(1,0)	(1,0)	(1,0)	
L1D -324>	(4,16)	(154,75)	(151,10)	(8,2)	(355,1)	(1,0)	(1,0)	(1,0)	(1,0)	(1,0)	(1,0)	(1,0)	(1,0)	(1,0)	(1,0)	(1,0)	
L1D -323>	(154,16)	(151,13)	(4,1)	(1,0)	(1,0)	(1,0)	(1,0)	(1,0)	(1,0)	(1,0)	(1,0)	(1,0)	(1,0)	(1,0)	(1,0)	(1,0)	
L1D -322>	(8,1)	(151,2)	(5,2)	(154,11)	(6,1)	(7,1)	(1,8)	(1,0)	(1,0)	(1,0)	(1,0)	(1,0)	(1,0)	(1,0)	(1,0)	(1,0)	
L1D -321>	(5,107)	(-13,1)	(7,1)	(2,1)	(1,4)	(1,0)	(1,0)	(1,0)	(1,0)	(1,0)	(1,0)	(1,0)	(1,0)	(1,0)	(1,0)	(1,0)	
L1D -320>	(8,2)	(1,1)	(7,1)	(1,0)	(1,0)	(1,0)	(1,0)	(1,0)	(1,0)	(1,0)	(1,0)	(1,0)	(1,0)	(1,0)	(1,0)	(1,0)	
L1D -319>	(1,10)	(0,1)	(380,66)	(-8,100)	(7,1)	(1,0)	(1,0)	(1,0)	(1,0)	(1,0)	(1,0)	(1,0)	(1,0)	(1,0)	(1,0)	(1,0)	
L1D -318>	(8,1)	(5,1)	(7,2)	(1,3)	(1,0)	(1,0)	(1,0)	(1,0)	(1,0)	(1,0)	(1,0)	(1,0)	(1,0)	(1,0)	(1,0)	(1,0)	
L1D -317>	(8,1)	(1,7)	(1,0)	(1,0)	(1,0)	(1,0)	(1,0)	(1,0)	(1,0)	(1,0)	(1,0)	(1,0)	(1,0)	(1,0)	(1,0)	(1,0)	
L1D -316>	(7,2)	(8,1)	(2,73)	(1,0)	(1,0)	(1,0)	(1,0)	(1,0)	(1,0)	(1,0)	(1,0)	(1,0)	(1,0)	(1,0)	(1,0)	(1,0)	
L1D -315>	(4,1)	(1,0)	(1,0)	(1,0)	(1,0)	(1,0)	(1,0)	(1,0)	(1,0)	(1,0)	(1,0)	(1,0)	(1,0)	(1,0)	(1,0)	(1,0)	
L1D -314>	(8,1)	(7,2)	(1,1)	(1,0)	(1,0)	(1,0)	(1,0)	(1,0)	(1,0)	(1,0)	(1,0)	(1,0)	(1,0)	(1,0)	(1,0)	(1,0)	
L1D -313>	(1,86)	(7,1)	(1,0)	(1,0)	(1,0)	(1,0)	(1,0)	(1,0)	(1,0)	(1,0)	(1,0)	(1,0)	(1,0)	(1,0)	(1,0)	(1,0)	
L1D -312>	(7,2)	(9,5)	(1,1)	(8,1)	(2,1)	(1,0)	(1,0)	(1,0)	(1,0)	(1,0)	(1,0)	(1,0)	(1,0)	(1,0)	(1,0)	(1,0)	
L1D -311>	(358,53)	(9,1)	(-12,22)	(1,6)	(8,1)	(1,0)	(1,0)	(1,0)	(1,0)	(1,0)	(1,0)	(1,0)	(1,0)	(1,0)	(1,0)	(1,0)	
L1D -310>	(2,3)	(9,102)	(7,2)	(8,1)	(1,58)	(106,1)	(1,0)	(1,0)	(1,0)	(1,0)	(1,0)	(1,0)	(1,0)	(1,0)	(1,0)	(1,0)	
L1D -309>	(501,100)	(4,107)	(1,26)	(2,3)	(7,1)	(1,0)	(1,0)	(1,0)	(1,0)	(1,0)	(1,0)	(1,0)	(1,0)	(1,0)	(1,0)	(1,0)	
L1D -308>	(106,105)	(5,1)	(501,5)	(2,2)	(7,2)	(-2,6)	(1,0)	(1,0)	(1,0)	(1,0)	(1,0)	(1,0)	(1,0)	(1,0)	(1,0)	(1,0)	
L1D -307>	(1,11)	(-5,1)	(7,1)	(1,0)	(1,0)	(1,0)	(1,0)	(1,0)	(1,0)	(1,0)	(1,0)	(1,0)	(1,0)	(1,0)	(1,0)	(1,0)	
L1D -306>	(5,8)	(6,1)	(7,2)	(1,2)	(8,1)	(1,0)	(1,0)	(1,0)	(1,0)	(1,0)	(1,0)	(1,0)	(1,0)	(1,0)	(1,0)	(1,0)	
L1D -305>	(5,100)	(8,1)	(1,0)	(1,0)	(1,0)	(1,0)	(1,0)	(1,0)	(1,0)	(1,0)	(1,0)	(1,0)	(1,0)	(1,0)	(1,0)	(1,0)	
L1D -304>	(8,3)	(1,2)	(1,0)	(1,0)	(1,0)	(1,0)	(1,0)	(1,0)	(1,0)	(1,0)	(1,0)	(1,0)	(1,0)	(1,0)	(1,0)	(1,0)	
L1D -303>	(1,1)	(8,1)	(1,0)	(1,0)	(1,0)	(1,0)	(1,0)	(1,0)	(1,0)	(1,0)	(1,0)	(1,0)	(1,0)	(1,0)	(1,0)	(1,0)	
L1D -302>	(2,1)	(18,8)	(4,2)	(7,1)	(1,0)	(1,0)	(1,0)	(1,0)	(1,0)	(1,0)	(1,0)	(1,0)	(1,0)	(1,0)	(1,0)	(1,0)	
L1D -301>	(1,109)	(18,94)	(2,7)	(7,1)	(1,0)	(1,0)	(1,0)	(1,0)	(1,0)	(1,0)	(1,0)	(1,0)	(1,0)	(1,0)	(1,0)	(1,0)	
L1D -300>	(8,0)	(5,0)	(1,127)	(2,0)	(7,0)	(1,0)	(1,0)	(1,0)	(1,0)	(1,0)	(1,0)	(1,0)	(1,0)	(1,0)	(1,0)	(1,0)	
L1D -299>	(-12,84)	(2,109)	(1,2)	(7,1)	(1,0)	(1,0)	(1,0)	(1,0)	(1,0)	(1,0)	(1,0)	(1,0)	(1,0)	(1,0)	(1,0)	(1,0)	
L1D -298>	(8,1)	(5,1)	(-17,1)	(1,45)	(7,1)	(2,1)	(1,0)	(1,0)	(1,0)	(1,0)	(1,0)	(1,0)	(1,0)	(1,0)	(1,0)	(1,0)	
L1D -297>	(7,1)	(1,0)	(1,0)	(1,0)	(1,0)	(1,0)	(1,0)	(1,0)	(1,0)	(1,0)	(1,0)	(1,0)	(1,0)	(1,0)	(1,0)	(1,0)	
L1D -296>	(2,1)	(8,1)	(7,1)	(296,1)	(1,0)	(1,0)	(1,0)	(1,0)	(1,0)	(1,0)	(1,0)	(1,0)	(1,0)	(1,0)	(1,0)	(1,0)	
L1D -295>	(7,1)	(1,0)	(1,0)	(1,0)	(1,0)	(1,0)	(1,0)	(1,0)	(1,0)	(1,0)	(1,0)	(1,0)	(1,0)	(1,0)	(1,0)	(1,0)	
L1D -294>	(2,1)	(-1,1)	(4,1)	(7,1)	(1,0)	(1,0)	(1,0)	(1,0)	(1,0)	(1,0)	(1,0)	(1,0)	(1,0)	(1,0)	(1,0)	(1,0)	
L1D -293>	(7,1)	(1,0)	(1,0)	(1,0)	(1,0)	(1,0)	(1,0)	(1,0)	(1,0)	(1,0)	(1,0)	(1,0)	(1,0)	(1,0)	(1,0)	(1,0)	
L1D -292>	(2,1)	(9,1)	(7,2)	(4,1)	(1,0)	(1,0)	(1,0)	(1,0)	(1,0)	(1,0)	(1,0)	(1,0)	(1,0)	(1,0)	(1,0)	(1,0)	
L1D -291>	(7,1)	(1,0)	(1,0)	(1,0)	(1,0)	(1,0)	(1,0)	(1,0)	(1,0)	(1,0)	(1,0)	(1,0)	(1,0)	(1,0)	(1,0)	(1,0)	
L1D -290>	(2,1)	(4,1)	(7,1)	(1,0)	(1,0)	(1,0)	(1,0)	(1,0)	(1,0)	(1,0)	(1,0)	(1,0)	(1,0)	(1,0)	(1,0)	(1,0)	
L1D -289>	(-86,2)	(7,1)	(1,0)	(1,0)	(1,0)	(1,0)	(1,0)	(1,0)	(1,0)	(1,0)	(1,0)	(1,0)	(1,0)	(1,0)	(1,0)	(1,0)	
L1D -288>	(2,1)	(8,1)	(7,1)	(0,1)	(11,1)	(1,0)	(1,0)	(1,0)	(1,0)	(1,0)	(1,0)	(1,0)	(1,0)	(1,0)	(1,0)	(1,0)	
L1D -287>	(-86,106)	(1,14)	(7,1)	(1,0)	(1,0)	(1,0)	(1,0)	(1,0)	(1,0)	(1,0)	(1,0)	(1,0)	(1,0)	(1,0)	(1,0)	(1,0)	
L1D -286>	(2,9)	(1,98)	(8,1)	(4,1)	(89,1)	(1,0)	(1,0)	(1,0)	(1,0)	(1,0)	(1,0)	(1,0)	(1,0)	(1,0)	(1,0)	(1,0)	
L1D -285>	(-15,8)	(1,1)	(5,1)	(8,1)	(1,0)	(1,0)	(1,0)	(1,0)	(1,0)	(1,0)	(1,0)	(1,0)	(1,0)	(1,0)	(1,0)	(1,0)	
L1D -284>	(2,103)	(-15,97)	(1,3)	(7,2)	(-162,1)	(200,22)	(1,0)	(1,0)	(1,0)	(1,0)	(1,0)	(1,0)	(1,0)	(1,0)	(1,0)	(1,0)	
L1D -283>	(0,39)	(1,18)	(-54,2)	(5,98)	(1,0)	(1,0)	(1,0)	(1,0)	(1,0)	(1,0)	(1,0)	(1,0)	(1,0)	(1,0)	(1,0)	(1,0)	
L1D -282>	(2,111)	(-71,11)	(4,1)	(1,10)	(1,0)	(1,0)	(1,0)	(1,0)	(1,0)	(1,0)	(1,0)	(1,0)	(1,0)	(1,0)	(1,0)	(1,0)	
L1D -281>	(1,117)	(200,12)	(77,1)	(1,0)	(1,0)	(1,0)	(1,0)	(1,0)	(1,0)	(1,0)	(1,0)	(1,0)	(1,0)	(1,0)	(1,0)	(1,0)	
L1D -280>	(-71,96)	(2,18)	(5,3)	(7,2)	(-30,2)	(8,2)	(1,0)	(1,0)	(1,0)	(1,0)	(1,0)	(1,0)	(1,0)	(1,0)	(1,0)	(1,0)	
L1D -279>	(2,81)	(240,1)	(-15,0)	(4,0)	(1,2)	(1,0)	(1,0)	(1,0)	(1,0)	(1,0)	(1,0)	(1,0)	(1,0)	(1,0)	(1,0)	(1,0)	
L1D -278>	(-5,110)	(5,107)	(2,110)	(4,1)	(8,2)	(7,1)	(1,0)	(1,0)	(1,0)	(1,0)	(1,0)	(1,0)	(1,0)	(1,0)	(1,0)	(1,0)	
L1D -277>	(1,107)	(2,7)	(4,13)	(271,2)	(6,4)	(26,2)	(30,1)	(0,7)	(1,0)	(1,0)	(1,0)	(1,0)	(1,0)	(1,0)	(1,0)	(1,0)	
L1D -276>	(4,6)	(2,26)	(6,12)	(8,12)	(7,1)	(0,5)	(38,1)	(1,0)	(1,0)	(1,0)	(1,0)	(1,0)	(1,0)	(1,0)	(1,0)	(1,0)	
L1D -275>	(271,106)	(2,12)	(4,7)	(8,3)	(6,2)	(1,2)	(0,4)	(1,0)	(1,0)	(1,0)	(1,0)	(1,0)	(1,0)	(1,0)	(1,0)	(1,0)	
L1D -274>	(2,108)	(4,1)	(8,1)	(6,2)	(283,1)	(7,1)	(250,1)	(0,8)	(26,1)	(244,1)	(30,1)	(38,1)	(1,0)	(1,0)	(1,0)	(1,0)	
L1D -273>	(283,108)	(2,13)	(6,9)	(8,18)	(4,16)	(1,1)	(1,0)	(1,0)	(1,0)	(1,0)	(1,0)	(1,0)	(1,0)	(1,0)	(1,0)	(1,0)	
L1D -272>	(2,1)	(8,6)	(4,2)	(0,1)	(7,3)	(5,1)	(1,0)	(1,0)	(1,0)	(1,0)	(1,0)	(1,0)	(1,0)	(1,0)	(1,0)	(1,0)	
L1D -271>	(1,51)	(3,8)	(6,1)	(0,4)	(11,17)	(13,1)	(1,0)	(1,0)	(1,0)	(1,0)	(1,0)	(1,0)	(1,0)	(1,0)	(1,0)	(1,0)	
L1D -270>	(0,69)	(80,39)	(8,2)	(-5,1)	(2,1)	(1,0)	(1,0)	(1,0)	(1,0)	(1,0)	(1,0)	(1,0)	(1,0)	(1,0)	(1,0)	(1,0)	
L1D -269>	(1,17)	(0,4)	(107,99)	(6,2)	(2,1)	(1,0)	(1,0)	(1,0)	(1,0)	(1,0)	(1,0)	(1,0)	(1,0)	(1,0)	(1,0)	(1,0)	
L1D -268>	(0,94)	(10,2)	(4,1)	(7,53)	(-19,18)	(2,1)	(6,1)	(1,1)	(5,2)	(1,0)	(1,0)	(1,0)	(1,0)	(1,0)	(1,0)	(1,0)	
L1D -267>	(0,3)	(-20,1)	(8,1)	(1,0)	(1,0)	(1,0)	(1,0)	(1,0)	(1,0)	(1,0)	(1,0)	(1,0)	(1,0)	(1,0)	(1,0)	(1,0)	
L1D -266>	(1,37)	(2,2)	(5,1)	(4,2)	(8,1)	(266,1)	(1,0)	(1,0)	(1,0)	(1,0)	(1,0)	(1,0)	(1,0)	(1,0)	(1,0)	(1,0)	
L1D -265>	(8,2)	(0,2)	(1,0)	(1,0)	(1,0)	(1,0)	(1,0)	(1,0)	(1,0)	(1,0)	(1,0)	(1,0)	(1,0)	(1,0)	(1,0)	(1,0)	
L1D -264>	(2,9)	(1,4)	(8,2)	(6,2)	(281,1)	(5,1)	(0,8)	(270,1)	(7,5)	(1,0)	(1,0)	(1,0)	(1,0)	(1,0)	(1,0)	(1,0)	
L1D -263>	(2,99)	(1,19)	(5,6)	(201,1)	(8,2)	(1,0)	(1,0)	(1,0)	(1,0)	(1,0)	(1,0)	(1,0)	(1,0)	(1,0)	(1,0)	(1,0)	
L1D -262>	(1,9)	(2,4)	(8,2)	(7,1)	(0,1)	(261,1)	(1,0)	(1,0)	(1,0)	(1,0)	(1,0)	(1,0)	(1,0)	(1,0)	(1,0)	(1,0)	
L1D -261>	(235,1)	(81,1)	(4,1)	(-5,1)	(1,2)	(1,0)	(1,0)	(1,0)	(1,0)	(1,0)	(1,0)	(1,0)	(1,0)	(1,0)	(1,0)	(1,0)	
L1D -260>	(1,120)	(2,8)	(8,3)	(6,100)	(7,1)	(4,1)	(-5,1)	(260,2)	(261,1)	(258,1)	(-11,91)	(1,0)	(1,0)	(1,0)	(1,0)	(1,0)	
L1D -259>	(256,6)	(-13,46)	(235,4)	(233,5)	(150,107)	(1,11)	(231,7)	(229,5)	(227,5)	(225,5)	(252,1)	(161,1)	(197,2)	(155,1)	(2,1)	(135,1)	
L1D -258>	(1,105)	(2,1)	(229,1)	(-13,89)	(-8,2)	(4,3)	(8,2)	(0,5)	(258,3)	(259,4)	(7,2)	(-2,10)	(1,0)	(1,0)	(1,0)	(1,0)	
L1D -257>	(257,2)	(5,2)	(225,1)	(149,1)	(151,1)	(2,1)	(4,1)	(157,2)	(159,1)	(-13,1)	(1,1)	(1,0)	(1,0)	(1,0)	(1,0)	(1,0)	
L1D -256>	(2,1)	(252,1)	(8,3)	(7,3)	(5,1)	(0,2)	(1,2)	(254,2)	(1,0)	(1,0)	(1,0)	(1,0)	(1,0)	(1,0)	(1,0)	(1,0)	
L1D -255>	(1,30)	(225,1)	(223,1)	(254,2)	(248,1)	(240,1)	(-1,1)	(1,0)	(1,0)	(1,0)	(1,0)	(1,0)	(1,0)	(1,0)	(1,0)	(1,0)	
L1D -254>	(1,2)	(5,66)	(2,1)	(211,1)	(203,1)	(250,1)	(253,65)	(257,14)	(8,6)	(38,1)	(7,2)	(-2,3)	(0,3)	(252,1)	(1,0)	(1,0)	
L1D -253>	(141,1)	(254,1)	(134,1)	(5,18)	(149,1)	(253,1)	(153,1)	(257,2)	(4,2)	(251,1)	(159,2)	(233,1)	(1,0)	(1,0)	(1,0)	(1,0)	
L1D -252>	(2,6)	(-2,1)	(150,3)	(224,2)	(136,7)	(248,18)	(138,2)	(140,5)	(222,4)	(142,3)	(226,3)	(220,3)	(144,3)	(146,2)	(0,3)	(218,3)	
L1D -251>	(8,1)	(2,1)	(253,1)	(0,1)	(-1,1)	(-2,1)	(1,0)	(1,0)	(1,0)	(1,0)	(1,0)	(1,0)	(1,0)	(1,0)	(1,0)	(1,0)	
L1D -250>	(2,108)	(4,2)	(8,1)	(271,5)	(0,3)	(7,1)	(246,3)	(-2,4)	(1,0)	(1,0)	(1,0)	(1,0)	(1,0)	(1,0)	(1,0)	(1,0)	
L1D -249>	(248,22)	(134,6)	(154,3)	(-5,3)	(136,5)	(252,3)	(138,5)	(140,9)	(142,8)	(8,2)	(144,6)	(146,10)	(148,5)	(150,3)	(1,1)	(152,5)	
L1D -248>	(194,121)	(248,5)	(252,1)	(2,6)	(148,1)	(4,1)	(-2,1)	(8,2)	(152,1)	(7,3)	(246,2)	(1,1)	(0,1)	(1,0)	(1,0)	(1,0)	
L1D -247>	(2,2)	(271,2)	(8,2)	(0,1)	(1,1)	(5,1)	(255,1)	(1,0)	(1,0)	(1,0)	(1,0)	(1,0)	(1,0)	(1,0)	(1,0)	(1,0)	
L1D -246>	(2,102)	(246,2)	(8,2)	(5,1)	(-2,1)	(0,1)	(244,1)	(1,0)	(1,0)	(1,0)	(1,0)	(1,0)	(1,0)	(1,0)	(1,0)	(1,0)	
L1D -245>	(0,6)	(1,1)	(2,2)	(107,1)	(1,0)	(1,0)	(1,0)	(1,0)	(1,0)	(1,0)	(1,0)	(1,0)	(1,0)	(1,0)	(1,0)	(1,0)	
L1D -244>	(1,111)	(244,2)	(2,2)	(8,2)	(4,1)	(7,1)	(-2,1)	(245,1)	(0,2)	(242,2)	(1,0)	(1,0)	(1,0)	(1,0)	(1,0)	(1,0)	
L1D -243>	(271,4)	(0,2)	(-5,2)	(1,0)	(1,0)	(1,0)	(1,0)	(1,0)	(1,0)	(1,0)	(1,0)	(1,0)	(1,0)	(1,0)	(1,0)	(1,0)	
L1D -242>	(-5,107)	(242,2)	(2,1)	(9,1)	(8,2)	(7,1)	(238,1)	(1,1)	(-2,1)	(1,0)	(1,0)	(1,0)	(1,0)	(1,0)	(1,0)	(1,0)	
L1D -241>	(1,3)	(14,2)	(-1,1)	(-2,1)	(2,105)	(8,2)	(16,1)	(13,1)	(4,1)	(1,0)	(1,0)	(1,0)	(1,0)	(1,0)	(1,0)	(1,0)	
L1D -240>	(2,24)	(1,28)	(240,1)	(14,92)	(6,1)	(0,2)	(7,5)	(8,2)	(238,2)	(1,0)	(1,0)	(1,0)	(1,0)	(1,0)	(1,0)	(1,0)	
L1D -239>	(98,86)	(38,1)	(8,2)	(4,1)	(2,15)	(1,2)	(0,4)	(1,0)	(1,0)	(1,0)	(1,0)	(1,0)	(1,0)	(1,0)	(1,0)	(1,0)	
L1D -238>	(5,103)	(1,109)	(2,35)	(0,2)	(234,1)	(8,4)	(227,1)	(7,2)	(239,1)	(1,0)	(1,0)	(1,0)	(1,0)	(1,0)	(1,0)	(1,0)	
L1D -237>	(271,2)	(0,1)	(1,14)	(2,6)	(8,1)	(14,1)	(237,1)	(4,1)	(-1,1)	(1,0)	(1,0)	(1,0)	(1,0)	(1,0)	(1,0)	(1,0)	
L1D -236>	(236,1)	(1,23)	(-8,106)	(2,9)	(232,1)	(6,1)	(4,1)	(0,1)	(230,2)	(8,1)	(79,2)	(-5,1)	(1,0)	(1,0)	(1,0)	(1,0)	
L1D -235>	(230,84)	(42,1)	(2,1)	(-34,1)	(-14,0)	(1,2)	(258,0)	(1,0)	(1,0)	(1,0)	(1,0)	(1,0)	(1,0)	(1,0)	(1,0)	(1,0)	
L1D -234>	(-5,32)	(1,8)	(2,66)	(254,0)	(8,6)	(234,14)	(79,8)	(143,63)	(4,1)	(1,0)	(1,0)	(1,0)	(1,0)	(1,0)	(1,0)	(1,0)	
L1D -233>	(0,1)	(271,1)	(233,2)	(1,36)	(8,1)	(-14,1)	(1,0)	(1,0)	(1,0)	(1,0)	(1,0)	(1,0)	(1,0)	(1,0)	(1,0)	(1,0)	
L1D -232>	(84,61)	(57,126)	(-5,1)	(1,6)	(8,2)	(7,2)	(1,0)	(1,0)	(1,0)	(1,0)	(1,0)	(1,0)	(1,0)	(1,0)	(1,0)	(1,0)	
L1D -231>	(57,90)	(1,5)	(2,2)	(8,1)	(253,0)	(1,0)	(1,0)	(1,0)	(1,0)	(1,0)	(1,0)	(1,0)	(1,0)	(1,0)	(1,0)	(1,0)	
L1D -230>	(57,30)	(2,2)	(1,14)	(8,1)	(7,3)	(1,0)	(1,0)	(1,0)	(1,0)	(1,0)	(1,0)	(1,0)	(1,0)	(1,0)	(1,0)	(1,0)	
L1D -229>	(271,0)	(1,66)	(254,0)	(-14,1)	(229,1)	(57,6)	(258,0)	(8,0)	(0,1)	(1,0)	(1,0)	(1,0)	(1,0)	(1,0)	(1,0)	(1,0)	
L1D -228>	(2,2)	(1,16)	(-14,1)	(224,1)	(4,1)	(8,1)	(0,1)	(1,0)	(1,0)	(1,0)	(1,0)	(1,0)	(1,0)	(1,0)	(1,0)	(1,0)	
L1D -227>	(254,1)	(-14,2)	(271,1)	(253,1)	(2,1)	(227,3)	(1,1)	(107,1)	(209,1)	(1,0)	(1,0)	(1,0)	(1,0)	(1,0)	(1,0)	(1,0)	
L1D -226>	(2,1)	(1,52)	(8,2)	(4,2)	(5,1)	(1,0)	(1,0)	(1,0)	(1,0)	(1,0)	(1,0)	(1,0)	(1,0)	(1,0)	(1,0)	(1,0)	
L1D -225>	(1,67)	(225,3)	(0,2)	(-14,3)	(271,1)	(254,3)	(8,1)	(253,1)	(224,1)	(1,0)	(1,0)	(1,0)	(1,0)	(1,0)	(1,0)	(1,0)	
L1D -224>	(2,1)	(-14,1)	(-47,1)	(7,2)	(1,2)	(-68,1)	(8,5)	(1,0)	(1,0)	(1,0)	(1,0)	(1,0)	(1,0)	(1,0)	(1,0)	(1,0)	
L1D -223>	(1,20)	(5,109)	(254,3)	(-14,2)	(0,3)	(223,2)	(8,2)	(222,1)	(1,0)	(1,0)	(1,0)	(1,0)	(1,0)	(1,0)	(1,0)	(1,0)	
L1D -222>	(2,1)	(-14,2)	(1,6)	(138,1)	(-49,1)	(150,1)	(7,1)	(8,2)	(-4,1)	(4,1)	(16,1)	(1,0)	(1,0)	(1,0)	(1,0)	(1,0)	
L1D -221>	(6,3)	(1,2)	(-5,2)	(221,1)	(-14,1)	(16,1)	(0,1)	(1,0)	(1,0)	(1,0)	(1,0)	(1,0)	(1,0)	(1,0)	(1,0)	(1,0)	
L1D -220>	(6,11)	(2,13)	(4,1)	(216,3)	(227,1)	(0,1)	(1,0)	(1,0)	(1,0)	(1,0)	(1,0)	(1,0)	(1,0)	(1,0)	(1,0)	(1,0)	
L1D -219>	(0,1)	(-5,108)	(1,9)	(8,3)	(4,1)	(219,2)	(254,1)	(1,0)	(1,0)	(1,0)	(1,0)	(1,0)	(1,0)	(1,0)	(1,0)	(1,0)	
L1D -218>	(2,82)	(1,2)	(227,41)	(471,0)	(7,0)	(8,0)	(1,0)	(1,0)	(1,0)	(1,0)	(1,0)	(1,0)	(1,0)	(1,0)	(1,0)	(1,0)	
L1D -217>	(1,109)	(271,1)	(8,3)	(2,1)	(217,1)	(-14,1)	(-1,1)	(1,0)	(1,0)	(1,0)	(1,0)	(1,0)	(1,0)	(1,0)	(1,0)	(1,0)	
L1D -216>	(2,1)	(212,1)	(8,8)	(1,2)	(7,1)	(-26,1)	(1,0)	(1,0)	(1,0)	(1,0)	(1,0)	(1,0)	(1,0)	(1,0)	(1,0)	(1,0)	
L1D -215>	(1,5)	(6,97)	(8,1)	(-6,5)	(215,2)	(0,2)	(204,1)	(1,0)	(1,0)	(1,0)	(1,0)	(1,0)	(1,0)	(1,0)	(1,0)	(1,0)	
L1D -214>	(1,5)	(2,1)	(-57,1)	(7,1)	(210,1)	(-113,1)	(-5,1)	(19,1)	(231,1)	(8,1)	(1,0)	(1,0)	(1,0)	(1,0)	(1,0)	(1,0)	
L1D -213>	(0,5)	(1,17)	(-16,5)	(-6,92)	(1,0)	(1,0)	(1,0)	(1,0)	(1,0)	(1,0)	(1,0)	(1,0)	(1,0)	(1,0)	(1,0)	(1,0)	
L1D -212>	(2,1)	(-113,108)	(-16,1)	(8,1)	(1,1)	(208,2)	(215,3)	(4,1)	(218,1)	(212,1)	(1,0)	(1,0)	(1,0)	(1,0)	(1,0)	(1,0)	
L1D -211>	(-16,101)	(1,5)	(2,2)	(271,1)	(7,2)	(211,1)	(176,2)	(1,0)	(1,0)	(1,0)	(1,0)	(1,0)	(1,0)	(1,0)	(1,0)	(1,0)	
L1D -210>	(1,113)	(5,9)	(215,104)	(210,2)	(7,90)	(8,3)	(206,1)	(2,2)	(1,0)	(1,0)	(1,0)	(1,0)	(1,0)	(1,0)	(1,0)	(1,0)	
L1D -209>	(176,108)	(0,2)	(1,5)	(209,1)	(2,1)	(1,0)	(1,0)	(1,0)	(1,0)	(1,0)	(1,0)	(1,0)	(1,0)	(1,0)	(1,0)	(1,0)	
L1D -208>	(-5,5)	(0,1)	(1,3)	(4,3)	(7,5)	(210,1)	(8,1)	(1,0)	(1,0)	(1,0)	(1,0)	(1,0)	(1,0)	(1,0)	(1,0)	(1,0)	
L1D -207>	(1,5)	(4,108)	(0,2)	(3,1)	(2,2)	(207,2)	(1,0)	(1,0)	(1,0)	(1,0)	(1,0)	(1,0)	(1,0)	(1,0)	(1,0)	(1,0)	
L1D -206>	(2,103)	(13,11)	(1,42)	(4,1)	(8,3)	(7,2)	(202,1)	(1,0)	(1,0)	(1,0)	(1,0)	(1,0)	(1,0)	(1,0)	(1,0)	(1,0)	
L1D -205>	(254,1)	(205,1)	(2,1)	(7,1)	(1,0)	(1,0)	(1,0)	(1,0)	(1,0)	(1,0)	(1,0)	(1,0)	(1,0)	(1,0)	(1,0)	(1,0)	
L1D -204>	(4,50)	(1,1)	(8,1)	(7,1)	(0,57)	(208,7)	(1,0)	(1,0)	(1,0)	(1,0)	(1,0)	(1,0)	(1,0)	(1,0)	(1,0)	(1,0)	
L1D -203>	(1,1)	(254,1)	(8,2)	(1,0)	(1,0)	(1,0)	(1,0)	(1,0)	(1,0)	(1,0)	(1,0)	(1,0)	(1,0)	(1,0)	(1,0)	(1,0)	
L1D -202>	(200,76)	(-8,1)	(8,2)	(1,4)	(198,1)	(1,0)	(1,0)	(1,0)	(1,0)	(1,0)	(1,0)	(1,0)	(1,0)	(1,0)	(1,0)	(1,0)	
L1D -201>	(6,86)	(0,2)	(1,51)	(1,0)	(1,0)	(1,0)	(1,0)	(1,0)	(1,0)	(1,0)	(1,0)	(1,0)	(1,0)	(1,0)	(1,0)	(1,0)	
L1D -200>	(1,82)	(9,2)	(8,2)	(7,4)	(1,0)	(1,0)	(1,0)	(1,0)	(1,0)	(1,0)	(1,0)	(1,0)	(1,0)	(1,0)	(1,0)	(1,0)	
L1D -199>	(2,1)	(254,1)	(1,7)	(199,1)	(-14,1)	(-79,1)	(1,0)	(1,0)	(1,0)	(1,0)	(1,0)	(1,0)	(1,0)	(1,0)	(1,0)	(1,0)	
L1D -198>	(1,94)	(210,1)	(7,1)	(2,1)	(1,0)	(1,0)	(1,0)	(1,0)	(1,0)	(1,0)	(1,0)	(1,0)	(1,0)	(1,0)	(1,0)	(1,0)	
L1D -197>	(1,5)	(197,1)	(8,1)	(2,1)	(1,0)	(1,0)	(1,0)	(1,0)	(1,0)	(1,0)	(1,0)	(1,0)	(1,0)	(1,0)	(1,0)	(1,0)	
L1D -196>	(4,3)	(-4,110)	(3,29)	(7,1)	(1,1)	(-5,1)	(-183,1)	(1,0)	(1,0)	(1,0)	(1,0)	(1,0)	(1,0)	(1,0)	(1,0)	(1,0)	
L1D -195>	(271,1)	(2,1)	(195,1)	(7,1)	(1,0)	(1,0)	(1,0)	(1,0)	(1,0)	(1,0)	(1,0)	(1,0)	(1,0)	(1,0)	(1,0)	(1,0)	
L1D -194>	(5,1)	(1,110)	(7,0)	(190,0)	(25,0)	(1,0)	(1,0)	(1,0)	(1,0)	(1,0)	(1,0)	(1,0)	(1,0)	(1,0)	(1,0)	(1,0)	
L1D -193>	(9,87)	(-1,73)	(193,86)	(7,86)	(183,13)	(25,53)	(1,83)	(-44,9)	(-26,1)	(-11,0)	(-40,0)	(1,0)	(1,0)	(1,0)	(1,0)	(1,0)	
L1D -192>	(1,45)	(-1,36)	(5,102)	(4,1)	(188,2)	(8,5)	(-147,1)	(7,1)	(1,0)	(1,0)	(1,0)	(1,0)	(1,0)	(1,0)	(1,0)	(1,0)	
L1D -191>	(4,107)	(192,1)	(8,2)	(2,2)	(6,3)	(1,0)	(1,0)	(1,0)	(1,0)	(1,0)	(1,0)	(1,0)	(1,0)	(1,0)	(1,0)	(1,0)	
L1D -190>	(2,6)	(6,108)	(186,1)	(7,2)	(9,1)	(8,1)	(1,0)	(1,0)	(1,0)	(1,0)	(1,0)	(1,0)	(1,0)	(1,0)	(1,0)	(1,0)	
L1D -189>	(0,6)	(177,15)	(1,9)	(192,98)	(190,1)	(20,1)	(2,1)	(1,0)	(1,0)	(1,0)	(1,0)	(1,0)	(1,0)	(1,0)	(1,0)	(1,0)	
L1D -188>	(5,111)	(4,1)	(12,17)	(8,2)	(7,1)	(2,1)	(1,0)	(1,0)	(1,0)	(1,0)	(1,0)	(1,0)	(1,0)	(1,0)	(1,0)	(1,0)	
L1D -187>	(1,110)	(177,92)	(181,5)	(0,2)	(188,1)	(-30,1)	(1,0)	(1,0)	(1,0)	(1,0)	(1,0)	(1,0)	(1,0)	(1,0)	(1,0)	(1,0)	
L1D -186>	(8,2)	(1,3)	(7,1)	(1,0)	(1,0)	(1,0)	(1,0)	(1,0)	(1,0)	(1,0)	(1,0)	(1,0)	(1,0)	(1,0)	(1,0)	(1,0)	
L1D -185>	(1,118)	(0,2)	(181,92)	(186,2)	(8,1)	(5,1)	(1,0)	(1,0)	(1,0)	(1,0)	(1,0)	(1,0)	(1,0)	(1,0)	(1,0)	(1,0)	
L1D -184>	(2,90)	(8,17)	(5,3)	(10,82)	(4,29)	(7,1)	(1,0)	(1,0)	(1,0)	(1,0)	(1,0)	(1,0)	(1,0)	(1,0)	(1,0)	(1,0)	
L1D -183>	(166,1)	(1,0)	(1,0)	(1,0)	(1,0)	(1,0)	(1,0)	(1,0)	(1,0)	(1,0)	(1,0)	(1,0)	(1,0)	(1,0)	(1,0)	(1,0)	
L1D -182>	(4,91)	(2,112)	(5,89)	(6,1)	(1,0)	(1,0)	(1,0)	(1,0)	(1,0)	(1,0)	(1,0)	(1,0)	(1,0)	(1,0)	(1,0)	(1,0)	
L1D -181>	(182,1)	(1,5)	(0,1)	(1,0)	(1,0)	(1,0)	(1,0)	(1,0)	(1,0)	(1,0)	(1,0)	(1,0)	(1,0)	(1,0)	(1,0)	(1,0)	
L1D -180>	(5,2)	(8,3)	(1,1)	(-4,40)	(211,1)	(0,1)	(2,1)	(1,0)	(1,0)	(1,0)	(1,0)	(1,0)	(1,0)	(1,0)	(1,0)	(1,0)	
L1D -179>	(2,1)	(180,1)	(0,1)	(36,1)	(1,0)	(1,0)	(1,0)	(1,0)	(1,0)	(1,0)	(1,0)	(1,0)	(1,0)	(1,0)	(1,0)	(1,0)	
L1D -178>	(1,119)	(5,45)	(4,1)	(8,1)	(1,0)	(1,0)	(1,0)	(1,0)	(1,0)	(1,0)	(1,0)	(1,0)	(1,0)	(1,0)	(1,0)	(1,0)	
L1D -177>	(0,2)	(5,122)	(-1,1)	(4,3)	(-27,1)	(1,0)	(1,0)	(1,0)	(1,0)	(1,0)	(1,0)	(1,0)	(1,0)	(1,0)	(1,0)	(1,0)	
L1D -176>	(2,124)	(5,69)	(190,1)	(1,1)	(7,4)	(8,2)	(1,0)	(1,0)	(1,0)	(1,0)	(1,0)	(1,0)	(1,0)	(1,0)	(1,0)	(1,0)	
L1D -175>	(2,109)	(271,1)	(176,1)	(111,3)	(8,2)	(0,2)	(32,1)	(5,5)	(1,0)	(1,0)	(1,0)	(1,0)	(1,0)	(1,0)	(1,0)	(1,0)	
L1D -174>	(2,110)	(174,1)	(8,2)	(170,2)	(1,1)	(7,1)	(-9,1)	(-5,1)	(1,0)	(1,0)	(1,0)	(1,0)	(1,0)	(1,0)	(1,0)	(1,0)	
L1D -173>	(5,102)	(0,15)	(2,14)	(1,16)	(111,94)	(175,98)	(-5,1)	(1,0)	(1,0)	(1,0)	(1,0)	(1,0)	(1,0)	(1,0)	(1,0)	(1,0)	
L1D -172>	(2,32)	(3,2)	(1,8)	(8,1)	(172,1)	(1,0)	(1,0)	(1,0)	(1,0)	(1,0)	(1,0)	(1,0)	(1,0)	(1,0)	(1,0)	(1,0)	
L1D -171>	(170,1)	(0,0)	(172,0)	(1,113)	(254,0)	(1,0)	(1,0)	(1,0)	(1,0)	(1,0)	(1,0)	(1,0)	(1,0)	(1,0)	(1,0)	(1,0)	
L1D -170>	(-12,2)	(-3,97)	(-34,2)	(-154,24)	(12,26)	(0,26)	(15,2)	(1,9)	(4,1)	(170,59)	(-8,0)	(-30,0)	(1,0)	(1,0)	(1,0)	(1,0)	
L1D -169>	(170,105)	(169,21)	(0,78)	(-3,100)	(12,10)	(1,102)	(-154,27)	(1,0)	(1,0)	(1,0)	(1,0)	(1,0)	(1,0)	(1,0)	(1,0)	(1,0)	
L1D -168>	(168,38)	(169,86)	(1,1)	(0,2)	(-3,1)	(173,1)	(-1,1)	(7,3)	(8,2)	(1,0)	(1,0)	(1,0)	(1,0)	(1,0)	(1,0)	(1,0)	
L1D -167>	(0,2)	(1,0)	(1,0)	(1,0)	(1,0)	(1,0)	(1,0)	(1,0)	(1,0)	(1,0)	(1,0)	(1,0)	(1,0)	(1,0)	(1,0)	(1,0)	
L1D -166>	(162,1)	(1,3)	(8,1)	(7,2)	(2,1)	(1,0)	(1,0)	(1,0)	(1,0)	(1,0)	(1,0)	(1,0)	(1,0)	(1,0)	(1,0)	(1,0)	
L1D -165>	(1,15)	(57,93)	(0,3)	(1,0)	(1,0)	(1,0)	(1,0)	(1,0)	(1,0)	(1,0)	(1,0)	(1,0)	(1,0)	(1,0)	(1,0)	(1,0)	
L1D -164>	(2,1)	(8,2)	(7,1)	(160,1)	(1,1)	(1,0)	(1,0)	(1,0)	(1,0)	(1,0)	(1,0)	(1,0)	(1,0)	(1,0)	(1,0)	(1,0)	
L1D -163>	(4,86)	(9,0)	(1,0)	(1,0)	(1,0)	(1,0)	(1,0)	(1,0)	(1,0)	(1,0)	(1,0)	(1,0)	(1,0)	(1,0)	(1,0)	(1,0)	
L1D -162>	(158,2)	(2,2)	(-8,2)	(7,1)	(271,1)	(51,2)	(-18,1)	(-20,2)	(-26,1)	(1,0)	(1,0)	(1,0)	(1,0)	(1,0)	(1,0)	(1,0)	
L1D -161>	(51,106)	(0,2)	(162,1)	(2,2)	(1,2)	(193,2)	(1,0)	(1,0)	(1,0)	(1,0)	(1,0)	(1,0)	(1,0)	(1,0)	(1,0)	(1,0)	
L1D -160>	(7,4)	(2,3)	(-16,1)	(0,1)	(4,1)	(8,1)	(160,1)	(1,0)	(1,0)	(1,0)	(1,0)	(1,0)	(1,0)	(1,0)	(1,0)	(1,0)	
L1D -159>	(2,1)	(140,1)	(0,2)	(1,1)	(7,1)	(1,0)	(1,0)	(1,0)	(1,0)	(1,0)	(1,0)	(1,0)	(1,0)	(1,0)	(1,0)	(1,0)	
L1D -158>	(1,80)	(2,102)	(-10,2)	(-62,1)	(7,1)	(1,0)	(1,0)	(1,0)	(1,0)	(1,0)	(1,0)	(1,0)	(1,0)	(1,0)	(1,0)	(1,0)	
L1D -157>	(2,61)	(0,4)	(1,7)	(158,2)	(55,1)	(-10,1)	(1,0)	(1,0)	(1,0)	(1,0)	(1,0)	(1,0)	(1,0)	(1,0)	(1,0)	(1,0)	
L1D -156>	(2,7)	(152,1)	(144,1)	(8,2)	(271,1)	(1,1)	(1,0)	(1,0)	(1,0)	(1,0)	(1,0)	(1,0)	(1,0)	(1,0)	(1,0)	(1,0)	
L1D -155>	(-3,2)	(1,68)	(0,2)	(167,52)	(-6,46)	(2,53)	(6,0)	(1,0)	(1,0)	(1,0)	(1,0)	(1,0)	(1,0)	(1,0)	(1,0)	(1,0)	
L1D -154>	(4,9)	(2,107)	(1,6)	(5,4)	(154,53)	(6,97)	(151,48)	(-6,1)	(-2,2)	(8,2)	(0,2)	(15,1)	(7,2)	(1,0)	(1,0)	(1,0)	
L1D -153>	(5,87)	(13,50)	(-281,1)	(-81,27)	(0,3)	(1,0)	(1,0)	(1,0)	(1,0)	(1,0)	(1,0)	(1,0)	(1,0)	(1,0)	(1,0)	(1,0)	
L1D -152>	(2,1)	(90,1)	(7,3)	(135,1)	(8,1)	(5,1)	(1,0)	(1,0)	(1,0)	(1,0)	(1,0)	(1,0)	(1,0)	(1,0)	(1,0)	(1,0)	
L1D -151>	(0,67)	(13,19)	(-5,72)	(1,66)	(256,1)	(152,1)	(2,53)	(-8,64)	(-2,0)	(1,0)	(1,0)	(1,0)	(1,0)	(1,0)	(1,0)	(1,0)	
L1D -150>	(2,8)	(9,4)	(1,3)	(5,2)	(0,1)	(7,1)	(271,1)	(-5,1)	(-4,23)	(8,1)	(1,0)	(1,0)	(1,0)	(1,0)	(1,0)	(1,0)	
L1D -149>	(0,54)	(16,110)	(2,108)	(5,6)	(1,4)	(-3,1)	(130,1)	(17,1)	(134,1)	(112,1)	(-5,1)	(1,0)	(1,0)	(1,0)	(1,0)	(1,0)	
L1D -148>	(2,91)	(6,1)	(0,10)	(1,59)	(76,0)	(144,1)	(7,0)	(1,0)	(1,0)	(1,0)	(1,0)	(1,0)	(1,0)	(1,0)	(1,0)	(1,0)	
L1D -147>	(0,1)	(146,1)	(2,2)	(20,1)	(50,1)	(-3,1)	(8,1)	(3,1)	(1,1)	(333,1)	(-12,1)	(7,1)	(1,0)	(1,0)	(1,0)	(1,0)	
L1D -146>	(2,91)	(5,1)	(144,0)	(-1,0)	(1,0)	(1,0)	(1,0)	(1,0)	(1,0)	(1,0)	(1,0)	(1,0)	(1,0)	(1,0)	(1,0)	(1,0)	
L1D -145>	(84,8)	(5,105)	(1,86)	(8,2)	(2,1)	(0,2)	(1,0)	(1,0)	(1,0)	(1,0)	(1,0)	(1,0)	(1,0)	(1,0)	(1,0)	(1,0)	
L1D -144>	(84,79)	(-173,1)	(7,3)	(8,2)	(1,2)	(4,1)	(1,0)	(1,0)	(1,0)	(1,0)	(1,0)	(1,0)	(1,0)	(1,0)	(1,0)	(1,0)	
L1D -143>	(-5,106)	(1,6)	(-2,1)	(0,4)	(79,13)	(6,1)	(1,0)	(1,0)	(1,0)	(1,0)	(1,0)	(1,0)	(1,0)	(1,0)	(1,0)	(1,0)	
L1D -142>	(5,111)	(-5,107)	(140,1)	(2,4)	(138,1)	(35,1)	(1,2)	(141,1)	(8,2)	(-3,1)	(0,2)	(7,1)	(160,1)	(1,0)	(1,0)	(1,0)	
L1D -141>	(141,83)	(116,52)	(-9,48)	(0,2)	(5,1)	(-4,1)	(2,2)	(1,1)	(1,0)	(1,0)	(1,0)	(1,0)	(1,0)	(1,0)	(1,0)	(1,0)	
L1D -140>	(141,2)	(-2,1)	(136,1)	(-1,1)	(8,2)	(1,1)	(171,1)	(-15,1)	(138,1)	(5,1)	(1,0)	(1,0)	(1,0)	(1,0)	(1,0)	(1,0)	
L1D -139>	(5,75)	(-14,0)	(2,1)	(142,0)	(1,4)	(-3,0)	(-2,0)	(7,1)	(143,0)	(4,0)	(65,0)	(159,0)	(0,1)	(1,0)	(1,0)	(1,0)	
L1D -138>	(1,111)	(170,1)	(4,2)	(137,1)	(5,1)	(-2,1)	(-1,1)	(1,0)	(1,0)	(1,0)	(1,0)	(1,0)	(1,0)	(1,0)	(1,0)	(1,0)	
L1D -137>	(137,105)	(5,7)	(1,6)	(2,5)	(7,91)	(0,1)	(138,1)	(8,1)	(-6,3)	(112,6)	(115,4)	(114,1)	(-8,6)	(28,1)	(1,0)	(1,0)	
L1D -136>	(2,3)	(120,107)	(135,1)	(-6,1)	(-2,2)	(4,1)	(112,1)	(8,3)	(1,4)	(6,1)	(130,2)	(7,3)	(1,0)	(1,0)	(1,0)	(1,0)	
L1D -135>	(115,104)	(112,95)	(5,11)	(1,16)	(2,5)	(-3,1)	(7,75)	(140,1)	(0,4)	(136,1)	(-6,2)	(9,1)	(-1,1)	(14,1)	(137,1)	(1,0)	
L1D -134>	(-4,3)	(125,14)	(2,4)	(130,94)	(138,1)	(-3,1)	(80,1)	(8,1)	(66,1)	(329,1)	(0,1)	(7,1)	(1,0)	(1,0)	(1,0)	(1,0)	
L1D -133>	(1,104)	(329,102)	(-6,105)	(2,7)	(12,2)	(335,1)	(107,1)	(1,0)	(1,0)	(1,0)	(1,0)	(1,0)	(1,0)	(1,0)	(1,0)	(1,0)	
L1D -132>	(-7,108)	(-5,104)	(117,9)	(-4,101)	(142,5)	(2,20)	(131,2)	(1,2)	(-12,1)	(0,3)	(145,1)	(-3,1)	(25,1)	(7,1)	(8,1)	(6,1)	
L1D -131>	(0,66)	(142,47)	(117,48)	(-6,1)	(1,48)	(23,5)	(7,1)	(2,0)	(1,0)	(1,0)	(1,0)	(1,0)	(1,0)	(1,0)	(1,0)	(1,0)	
L1D -130>	(2,99)	(0,2)	(132,1)	(5,6)	(1,2)	(-2,1)	(127,1)	(-3,1)	(1,0)	(1,0)	(1,0)	(1,0)	(1,0)	(1,0)	(1,0)	(1,0)	
L1D -129>	(5,12)	(1,19)	(0,5)	(2,3)	(7,95)	(133,1)	(4,1)	(8,2)	(24,1)	(73,1)	(1,0)	(1,0)	(1,0)	(1,0)	(1,0)	(1,0)	
L1D -128>	(2,4)	(125,2)	(-2,1)	(4,1)	(1,2)	(7,3)	(-5,1)	(6,1)	(8,1)	(5,1)	(1,0)	(1,0)	(1,0)	(1,0)	(1,0)	(1,0)	
L1D -127>	(2,112)	(5,16)	(9,1)	(7,86)	(1,99)	(10,4)	(126,1)	(-2,2)	(492,4)	(-8,1)	(0,1)	(1,0)	(1,0)	(1,0)	(1,0)	(1,0)	
L1D -126>	(6,109)	(1,112)	(0,13)	(123,2)	(107,106)	(492,95)	(2,4)	(7,1)	(13,2)	(8,2)	(-5,1)	(14,15)	(354,1)	(1,0)	(1,0)	(1,0)	
L1D -125>	(0,3)	(95,1)	(127,1)	(-3,2)	(361,4)	(1,3)	(-129,1)	(-2,1)	(2,1)	(1,0)	(1,0)	(1,0)	(1,0)	(1,0)	(1,0)	(1,0)	
L1D -124>	(1,3)	(361,100)	(121,3)	(-2,1)	(369,1)	(0,1)	(124,1)	(-3,1)	(7,1)	(8,1)	(6,1)	(3,1)	(128,1)	(270,1)	(1,0)	(1,0)	
L1D -123>	(5,13)	(-2,1)	(1,2)	(-131,2)	(6,1)	(0,1)	(1,0)	(1,0)	(1,0)	(1,0)	(1,0)	(1,0)	(1,0)	(1,0)	(1,0)	(1,0)	
L1D -122>	(2,106)	(-133,1)	(5,101)	(123,1)	(121,2)	(1,3)	(0,2)	(122,1)	(-3,1)	(7,3)	(119,1)	(8,1)	(-20,1)	(1,0)	(1,0)	(1,0)	
L1D -121>	(8,109)	(-2,1)	(3,1)	(361,3)	(123,2)	(-5,1)	(0,1)	(1,0)	(1,0)	(1,0)	(1,0)	(1,0)	(1,0)	(1,0)	(1,0)	(1,0)	
L1D -120>	(-147,1)	(5,2)	(98,1)	(0,3)	(1,1)	(120,2)	(-3,1)	(8,5)	(117,2)	(-5,1)	(-279,1)	(107,1)	(7,1)	(6,1)	(1,0)	(1,0)	
L1D -119>	(3,86)	(8,1)	(5,1)	(-3,1)	(-10,1)	(0,10)	(2,1)	(108,1)	(-26,1)	(1,1)	(117,2)	(1,0)	(1,0)	(1,0)	(1,0)	(1,0)	
L1D -118>	(1,115)	(4,46)	(-8,46)	(5,28)	(2,4)	(106,1)	(-173,41)	(-16,1)	(7,1)	(1,0)	(1,0)	(1,0)	(1,0)	(1,0)	(1,0)	(1,0)	
L1D -117>	(5,125)	(2,57)	(4,55)	(117,50)	(-173,2)	(1,5)	(-3,1)	(-210,47)	(10,53)	(113,1)	(40,0)	(-137,0)	(-20,0)	(1,0)	(1,0)	(1,0)	
L1D -116>	(2,3)	(113,2)	(-7,5)	(-2,1)	(120,4)	(8,2)	(118,1)	(7,1)	(-5,1)	(4,1)	(5,1)	(80,1)	(1,1)	(1,0)	(1,0)	(1,0)	
L1D -115>	(12,0)	(1,9)	(5,65)	(6,74)	(-5,1)	(-210,1)	(0,3)	(-3,1)	(7,1)	(384,0)	(120,1)	(8,0)	(70,0)	(90,0)	(1,0)	(1,0)	
L1D -114>	(115,4)	(2,115)	(-7,101)	(113,11)	(0,2)	(4,2)	(111,9)	(3,2)	(7,1)	(5,4)	(-2,1)	(11,1)	(-9,9)	(-3,1)	(8,3)	(118,1)	
L1D -113>	(8,8)	(6,28)	(1,99)	(0,41)	(113,31)	(-9,0)	(-5,22)	(4,0)	(7,19)	(5,1)	(477,0)	(2,14)	(108,0)	(1,0)	(1,0)	(1,0)	
L1D -112>	(5,111)	(-9,24)	(106,26)	(4,1)	(7,4)	(2,4)	(62,8)	(8,2)	(1,0)	(1,0)	(1,0)	(1,0)	(1,0)	(1,0)	(1,0)	(1,0)	
L1D -111>	(1,119)	(5,106)	(106,103)	(111,5)	(2,5)	(-2,1)	(-143,1)	(4,3)	(8,1)	(-1,1)	(1,0)	(1,0)	(1,0)	(1,0)	(1,0)	(1,0)	
L1D -110>	(2,109)	(-10,107)	(4,101)	(111,7)	(3,2)	(107,6)	(0,1)	(8,4)	(-5,1)	(1,0)	(1,0)	(1,0)	(1,0)	(1,0)	(1,0)	(1,0)	
L1D -109>	(8,118)	(1,78)	(111,60)	(124,2)	(107,107)	(108,2)	(2,1)	(0,11)	(113,1)	(-6,4)	(-2,0)	(136,0)	(1,0)	(1,0)	(1,0)	(1,0)	
L1D -108>	(1,37)	(-12,27)	(119,28)	(108,82)	(105,0)	(-5,1)	(-10,0)	(0,0)	(2,2)	(-23,34)	(-6,0)	(-9,0)	(106,2)	(7,0)	(1,0)	(1,0)	
L1D -107>	(-4,10)	(-8,0)	(1,24)	(107,90)	(2,14)	(109,8)	(-3,0)	(124,10)	(138,0)	(130,0)	(0,0)	(1,0)	(1,0)	(1,0)	(1,0)	(1,0)	
L1D -106>	(108,3)	(2,59)	(-5,70)	(-1,51)	(106,55)	(-10,38)	(-7,3)	(107,3)	(103,5)	(8,1)	(4,1)	(7,1)	(-4,0)	(1,0)	(1,0)	(1,0)	
L1D -105>	(-3,2)	(112,99)	(-2,1)	(1,3)	(-20,1)	(8,2)	(105,4)	(2,8)	(0,3)	(-149,1)	(80,1)	(103,1)	(99,1)	(-12,1)	(1,0)	(1,0)	
L1D -104>	(2,12)	(105,9)	(-2,2)	(-3,2)	(25,1)	(85,1)	(108,2)	(5,1)	(60,1)	(101,9)	(-49,1)	(8,2)	(15,1)	(45,1)	(1,1)	(7,3)	
L1D -103>	(2,11)	(1,2)	(100,1)	(87,3)	(0,1)	(103,3)	(-2,1)	(1,0)	(1,0)	(1,0)	(1,0)	(1,0)	(1,0)	(1,0)	(1,0)	(1,0)	
L1D -102>	(-3,5)	(0,2)	(103,3)	(8,2)	(101,1)	(99,11)	(80,1)	(-20,1)	(-1,1)	(1,2)	(84,1)	(-2,1)	(-16,1)	(-26,1)	(1,0)	(1,0)	
L1D -101>	(87,102)	(12,110)	(2,1)	(1,6)	(16,1)	(101,5)	(5,1)	(-1,1)	(1,0)	(1,0)	(1,0)	(1,0)	(1,0)	(1,0)	(1,0)	(1,0)	
L1D -100>	(98,106)	(-3,5)	(8,2)	(90,1)	(2,3)	(103,1)	(120,1)	(-1,1)	(101,8)	(1,1)	(5,1)	(97,12)	(-5,1)	(1,0)	(1,0)	(1,0)	
L1D -99>	(101,110)	(73,1)	(-2,1)	(99,1)	(-9,1)	(79,0)	(-12,0)	(1,1)	(1,0)	(1,0)	(1,0)	(1,0)	(1,0)	(1,0)	(1,0)	(1,0)	
L1D -98>	(2,96)	(66,1)	(-9,1)	(8,2)	(5,2)	(79,1)	(-2,1)	(0,1)	(99,3)	(95,7)	(102,1)	(1,2)	(15,1)	(30,1)	(-1,1)	(50,1)	
L1D -97>	(0,1)	(1,91)	(96,1)	(97,1)	(5,1)	(-3,0)	(125,0)	(73,0)	(1,0)	(1,0)	(1,0)	(1,0)	(1,0)	(1,0)	(1,0)	(1,0)	
L1D -96>	(96,1)	(-2,2)	(-8,1)	(25,1)	(7,3)	(5,1)	(95,1)	(97,5)	(15,1)	(1,2)	(93,2)	(2,2)	(8,2)	(6,1)	(1,0)	(1,0)	
L1D -95>	(5,110)	(271,1)	(1,4)	(-10,1)	(-13,2)	(-11,2)	(95,9)	(97,1)	(105,1)	(80,1)	(0,2)	(2,1)	(-25,1)	(1,0)	(1,0)	(1,0)	
L1D -94>	(-42,86)	(2,6)	(95,7)	(-16,1)	(-1,1)	(7,1)	(91,1)	(5,1)	(94,0)	(1,2)	(1,0)	(1,0)	(1,0)	(1,0)	(1,0)	(1,0)	
L1D -93>	(10,109)	(5,47)	(45,10)	(93,2)	(94,6)	(2,3)	(-33,30)	(102,2)	(-4,1)	(1,3)	(-38,1)	(1,0)	(1,0)	(1,0)	(1,0)	(1,0)	
L1D -92>	(93,2)	(-4,5)	(0,2)	(91,4)	(-1,2)	(5,1)	(6,1)	(-3,6)	(8,2)	(2,4)	(3,1)	(4,1)	(-9,2)	(92,1)	(106,1)	(1,1)	
L1D -91>	(1,21)	(271,1)	(0,6)	(120,100)	(93,1)	(5,101)	(9,1)	(2,1)	(-4,1)	(-5,1)	(1,0)	(1,0)	(1,0)	(1,0)	(1,0)	(1,0)	
L1D -90>	(2,92)	(-4,37)	(-110,3)	(-9,42)	(0,7)	(5,1)	(7,3)	(-86,0)	(-46,0)	(-3,2)	(-16,0)	(75,0)	(90,2)	(154,0)	(-10,0)	(-25,0)	
L1D -89>	(0,5)	(5,105)	(1,7)	(40,1)	(9,10)	(-19,5)	(6,3)	(2,6)	(90,2)	(-2,1)	(86,3)	(-3,3)	(-14,1)	(3,1)	(-1,1)	(1,0)	
L1D -88>	(6,105)	(0,7)	(1,3)	(-110,100)	(73,4)	(-2,2)	(-9,1)	(2,6)	(-19,1)	(85,1)	(7,4)	(89,1)	(4,1)	(-3,1)	(-1,2)	(1,0)	
L1D -87>	(-19,98)	(0,3)	(-3,5)	(2,4)	(-2,1)	(1,3)	(-5,2)	(86,2)	(87,3)	(35,1)	(75,1)	(-110,1)	(260,1)	(-69,1)	(-6,1)	(1,0)	
L1D -86>	(10,1)	(2,96)	(192,1)	(-110,41)	(-5,53)	(4,49)	(-15,2)	(-19,1)	(85,2)	(-1,1)	(-7,1)	(0,4)	(1,2)	(7,2)	(1,0)	(1,0)	
L1D -85>	(361,1)	(88,1)	(-3,4)	(1,8)	(0,3)	(192,2)	(100,1)	(-10,1)	(-15,1)	(87,2)	(-11,2)	(2,2)	(-1,1)	(1,0)	(1,0)	(1,0)	
L1D -84>	(34,104)	(234,93)	(1,65)	(242,57)	(-28,1)	(-15,52)	(0,53)	(2,4)	(86,2)	(-4,0)	(8,1)	(88,1)	(85,1)	(9,0)	(73,1)	(101,0)	
L1D -83>	(230,87)	(79,87)	(92,1)	(63,4)	(2,1)	(84,5)	(-5,1)	(-2,0)	(1,1)	(1,0)	(1,0)	(1,0)	(1,0)	(1,0)	(1,0)	(1,0)	
L1D -82>	(-4,10)	(32,1)	(359,1)	(2,4)	(6,1)	(0,4)	(82,2)	(81,5)	(-3,1)	(79,1)	(8,1)	(12,1)	(83,1)	(7,1)	(1,2)	(110,1)	
L1D -81>	(57,35)	(79,11)	(30,22)	(63,20)	(5,20)	(-4,21)	(234,87)	(34,57)	(44,0)	(2,0)	(4,0)	(1,1)	(1,0)	(1,0)	(1,0)	(1,0)	
L1D -80>	(1,48)	(80,8)	(0,49)	(84,3)	(-2,3)	(2,2)	(82,2)	(5,1)	(79,1)	(9,1)	(-84,93)	(-5,2)	(-3,2)	(30,2)	(-1,4)	(7,2)	
L1D -79>	(-2,57)	(0,110)	(2,2)	(9,2)	(1,2)	(19,1)	(-1,1)	(234,1)	(76,0)	(14,5)	(80,0)	(1,0)	(1,0)	(1,0)	(1,0)	(1,0)	
L1D -78>	(75,3)	(1,41)	(2,2)	(82,1)	(257,2)	(80,1)	(0,12)	(77,1)	(-2,3)	(78,1)	(8,6)	(4,1)	(-54,1)	(-3,1)	(5,4)	(-1,1)	
L1D -77>	(33,87)	(3,87)	(14,48)	(-3,2)	(75,1)	(74,1)	(19,1)	(-12,1)	(0,17)	(-1,1)	(271,0)	(1,1)	(1,0)	(1,0)	(1,0)	(1,0)	
L1D -76>	(2,87)	(33,1)	(65,6)	(7,0)	(78,0)	(257,0)	(1,1)	(259,0)	(-84,0)	(1,0)	(1,0)	(1,0)	(1,0)	(1,0)	(1,0)	(1,0)	
L1D -75>	(155,1)	(85,1)	(351,1)	(78,1)	(-3,1)	(-1,1)	(1,7)	(0,3)	(20,1)	(449,1)	(2,3)	(75,1)	(-2,2)	(65,1)	(-5,1)	(1,0)	
L1D -74>	(2,125)	(65,92)	(71,2)	(33,15)	(76,2)	(257,2)	(-3,3)	(349,1)	(1,5)	(259,1)	(-2,1)	(74,2)	(75,2)	(0,2)	(7,1)	(78,2)	
L1D -73>	(1,87)	(72,0)	(2,0)	(107,0)	(65,0)	(76,0)	(-2,1)	(6,0)	(9,1)	(74,3)	(-14,0)	(1,0)	(1,0)	(1,0)	(1,0)	(1,0)	
L1D -72>	(-115,2)	(5,77)	(76,107)	(1,2)	(-4,1)	(-1,2)	(-3,7)	(275,1)	(71,5)	(259,2)	(69,2)	(2,3)	(-8,2)	(8,1)	(0,2)	(72,1)	
L1D -71>	(0,3)	(66,106)	(-7,106)	(1,14)	(-2,2)	(9,101)	(347,1)	(74,2)	(2,5)	(271,1)	(71,3)	(1,0)	(1,0)	(1,0)	(1,0)	(1,0)	
L1D -70>	(0,27)	(-115,27)	(70,81)	(-3,1)	(2,11)	(80,0)	(1,1)	(64,7)	(-1,1)	(5,0)	(90,0)	(259,0)	(110,0)	(69,0)	(8,0)	(67,0)	
L1D -69>	(0,7)	(1,20)	(2,7)	(-5,1)	(73,2)	(66,5)	(72,3)	(9,17)	(6,1)	(70,1)	(271,1)	(8,1)	(-3,2)	(4,1)	(3,1)	(61,1)	
L1D -68>	(4,8)	(0,14)	(2,2)	(1,1)	(345,1)	(-3,1)	(-2,3)	(68,3)	(257,1)	(67,1)	(-8,1)	(8,4)	(65,1)	(-49,1)	(69,1)	(106,1)	
L1D -67>	(1,112)	(2,4)	(-3,1)	(90,1)	(89,1)	(6,1)	(20,1)	(66,1)	(13,1)	(170,1)	(-1,1)	(8,1)	(65,1)	(0,2)	(1,0)	(1,0)	
L1D -66>	(4,77)	(-4,38)	(1,111)	(63,4)	(2,43)	(-2,1)	(70,1)	(0,2)	(25,1)	(65,1)	(-77,1)	(100,1)	(-1,1)	(1,0)	(1,0)	(1,0)	
L1D -65>	(1,18)	(6,95)	(68,2)	(341,1)	(2,3)	(8,2)	(-5,2)	(0,7)	(36,1)	(67,4)	(35,1)	(40,1)	(25,1)	(74,1)	(1,0)	(1,0)	
L1D -64>	(3,21)	(58,0)	(-207,0)	(2,82)	(74,0)	(345,0)	(61,1)	(72,0)	(343,1)	(68,1)	(257,1)	(65,1)	(-2,2)	(0,1)	(4,0)	(8,1)	
L1D -63>	(5,78)	(68,51)	(64,6)	(-2,1)	(12,1)	(9,1)	(72,1)	(-31,1)	(1,1)	(15,1)	(1,0)	(1,0)	(1,0)	(1,0)	(1,0)	(1,0)	
L1D -62>	(19,43)	(66,0)	(-3,1)	(1,28)	(14,0)	(111,6)	(0,75)	(24,0)	(-1,1)	(170,0)	(2,0)	(64,0)	(337,0)	(1,0)	(1,0)	(1,0)	
L1D -61>	(-194,1)	(9,3)	(1,6)	(337,2)	(64,1)	(-193,1)	(0,2)	(271,1)	(75,1)	(-3,1)	(-1,4)	(43,1)	(8,1)	(1,0)	(1,0)	(1,0)	
L1D -60>	(0,107)	(57,8)	(62,3)	(60,36)	(80,4)	(-1,3)	(70,2)	(40,4)	(30,3)	(-3,3)	(10,4)	(2,1)	(64,2)	(-10,1)	(-2,1)	(337,1)	
L1D -59>	(0,9)	(-9,1)	(1,29)	(5,111)	(2,101)	(85,9)	(9,12)	(4,3)	(3,1)	(61,1)	(56,3)	(63,2)	(-79,1)	(335,1)	(62,2)	(-20,1)	
L1D -58>	(1,94)	(4,2)	(-1,3)	(61,1)	(55,1)	(-2,1)	(67,1)	(0,6)	(2,1)	(62,0)	(257,0)	(8,4)	(259,0)	(1,0)	(1,0)	(1,0)	
L1D -57>	(230,3)	(143,56)	(79,110)	(0,1)	(57,111)	(234,54)	(16,109)	(-13,19)	(8,1)	(9,56)	(-3,0)	(4,0)	(2,0)	(35,0)	(1,0)	(1,0)	
L1D -56>	(53,4)	(-198,1)	(-2,2)	(0,10)	(1,5)	(60,2)	(333,1)	(275,1)	(257,1)	(8,3)	(55,1)	(7,1)	(-5,2)	(10,1)	(-17,6)	(13,1)	
L1D -55>	(0,97)	(33,107)	(64,2)	(-40,1)	(55,1)	(1,118)	(2,4)	(-3,1)	(-2,0)	(-5,0)	(1,0)	(1,0)	(1,0)	(1,0)	(1,0)	(1,0)	
L1D -54>	(41,106)	(0,17)	(1,13)	(19,13)	(2,19)	(5,70)	(7,9)	(-1,1)	(10,4)	(32,90)	(-193,13)	(45,1)	(-3,1)	(85,1)	(55,2)	(51,2)	
L1D -53>	(-5,1)	(6,55)	(3,1)	(41,36)	(32,40)	(-8,102)	(-2,1)	(154,0)	(-4,1)	(54,8)	(1,2)	(1,0)	(1,0)	(1,0)	(1,0)	(1,0)	
L1D -52>	(54,1)	(-203,1)	(49,7)	(41,1)	(0,3)	(71,1)	(60,1)	(38,1)	(2,2)	(329,2)	(56,2)	(3,3)	(327,1)	(257,1)	(51,3)	(1,4)	
L1D -51>	(41,46)	(-207,1)	(-204,1)	(6,1)	(50,3)	(9,15)	(0,4)	(1,2)	(327,1)	(54,1)	(271,1)	(-15,1)	(-1,1)	(1,0)	(1,0)	(1,0)	
L1D -50>	(4,0)	(3,47)	(0,14)	(50,5)	(38,24)	(41,29)	(2,2)	(20,0)	(13,0)	(-62,74)	(213,0)	(-2,1)	(299,0)	(-10,0)	(125,0)	(271,0)	
L1D -49>	(7,28)	(0,59)	(1,85)	(50,1)	(6,2)	(44,56)	(46,1)	(47,3)	(53,1)	(9,11)	(35,0)	(10,0)	(80,0)	(2,2)	(41,2)	(-2,1)	
L1D -48>	(13,10)	(0,15)	(45,5)	(-2,3)	(8,4)	(-3,3)	(40,1)	(1,5)	(259,1)	(7,1)	(271,1)	(49,1)	(3,1)	(-1,1)	(2,1)	(-4,1)	
L1D -47>	(2,5)	(47,41)	(17,20)	(0,18)	(1,2)	(-6,39)	(6,39)	(-3,9)	(49,37)	(156,1)	(41,1)	(5,64)	(3,1)	(9,6)	(13,37)	(296,0)	
L1D -46>	(-6,87)	(46,86)	(2,2)	(0,3)	(49,1)	(75,1)	(41,1)	(43,1)	(-5,2)	(7,1)	(1,3)	(45,1)	(-1,1)	(1,0)	(1,0)	(1,0)	
L1D -45>	(0,25)	(45,26)	(4,71)	(48,24)	(8,23)	(1,8)	(54,1)	(-9,1)	(3,1)	(-2,1)	(2,1)	(35,1)	(1,0)	(1,0)	(1,0)	(1,0)	
L1D -44>	(23,90)	(15,1)	(7,1)	(42,44)	(55,1)	(2,4)	(-10,3)	(-3,1)	(1,89)	(54,4)	(-4,1)	(45,1)	(41,1)	(44,1)	(5,2)	(-22,1)	
L1D -43>	(-5,3)	(0,2)	(1,71)	(2,1)	(43,7)	(10,2)	(41,25)	(-2,2)	(14,1)	(23,1)	(44,4)	(37,0)	(1,0)	(1,0)	(1,0)	(1,0)	
L1D -42>	(41,81)	(3,1)	(0,102)	(-3,4)	(2,6)	(32,84)	(5,39)	(-5,27)	(43,3)	(42,28)	(106,1)	(51,1)	(1,2)	(-8,0)	(160,0)	(1,0)	
L1D -41>	(0,2)	(2,13)	(32,39)	(5,23)	(-33,71)	(-6,15)	(-5,20)	(-2,0)	(40,0)	(-4,0)	(4,0)	(9,0)	(43,3)	(41,9)	(42,0)	(1,2)	
L1D -40>	(40,97)	(0,82)	(41,4)	(90,1)	(42,5)	(27,0)	(32,22)	(-2,1)	(10,8)	(-26,0)	(35,0)	(26,1)	(20,0)	(1,0)	(-95,0)	(-1,0)	
L1D -39>	(40,90)	(-2,12)	(-1,5)	(9,1)	(0,94)	(56,2)	(1,12)	(2,14)	(37,14)	(6,2)	(11,1)	(-5,1)	(20,2)	(27,3)	(3,25)	(18,2)	
L1D -38>	(38,26)	(-2,3)	(-10,20)	(36,98)	(8,2)	(0,31)	(-219,0)	(33,19)	(-27,0)	(-1,1)	(35,0)	(1,2)	(13,0)	(3,7)	(2,8)	(5,0)	
L1D -37>	(2,104)	(18,100)	(6,103)	(1,120)	(42,107)	(47,6)	(37,50)	(-1,7)	(-10,2)	(0,11)	(36,6)	(-3,12)	(3,58)	(-8,3)	(8,1)	(40,2)	
L1D -36>	(-17,81)	(36,49)	(0,3)	(-40,1)	(3,13)	(38,9)	(29,21)	(2,34)	(23,19)	(27,20)	(57,1)	(39,1)	(1,1)	(5,3)	(62,0)	(257,0)	
L1D -35>	(40,86)	(26,1)	(1,122)	(-3,1)	(-8,53)	(5,53)	(-4,52)	(0,5)	(2,5)	(35,1)	(75,1)	(-239,1)	(38,0)	(-2,0)	(6,0)	(-219,0)	
L1D -34>	(1,86)	(55,1)	(0,12)	(5,88)	(2,53)	(57,43)	(31,8)	(-2,1)	(9,1)	(18,1)	(-1,2)	(38,1)	(32,1)	(34,3)	(-3,0)	(-11,0)	
L1D -33>	(32,79)	(30,35)	(9,19)	(2,40)	(43,28)	(-2,87)	(1,111)	(75,119)	(42,84)	(38,102)	(0,42)	(22,1)	(5,6)	(-3,6)	(23,25)	(28,25)	
L1D -32>	(0,113)	(33,37)	(23,1)	(-4,16)	(18,0)	(9,32)	(32,44)	(22,15)	(29,2)	(-1,1)	(40,50)	(41,14)	(1,15)	(42,11)	(2,0)	(96,0)	
L1D -31>	(41,104)	(0,112)	(5,56)	(14,55)	(-5,53)	(33,1)	(1,13)	(11,1)	(4,1)	(9,5)	(18,3)	(6,1)	(36,1)	(29,1)	(2,1)	(-1,2)	
L1D -30>	(-4,2)	(217,44)	(30,65)	(0,40)	(1,96)	(23,21)	(-2,1)	(-6,44)	(2,44)	(-8,42)	(18,41)	(5,88)	(-10,1)	(27,3)	(20,2)	(-1,4)	
L1D -29>	(0,57)	(1,74)	(18,30)	(26,0)	(2,34)	(5,33)	(6,31)	(7,1)	(14,1)	(-5,0)	(-1,8)	(8,0)	(9,7)	(41,0)	(-3,0)	(-94,0)	
L1D -28>	(25,91)	(28,2)	(0,13)	(-5,49)	(1,108)	(5,98)	(8,8)	(132,49)	(-6,49)	(-1,11)	(15,1)	(7,48)	(2,1)	(257,0)	(-2,4)	(-4,1)	
L1D -27>	(6,4)	(5,106)	(-1,2)	(0,30)	(1,6)	(12,4)	(-3,9)	(-222,2)	(26,5)	(-10,1)	(-227,1)	(30,4)	(2,5)	(303,1)	(8,1)	(4,2)	
L1D -26>	(2,92)	(-4,30)	(1,48)	(15,30)	(23,3)	(25,1)	(14,0)	(-9,0)	(36,41)	(5,4)	(0,5)	(271,0)	(24,1)	(26,0)	(27,0)	(-1,3)	
L1D -25>	(1,124)	(15,59)	(6,31)	(0,3)	(115,1)	(-132,1)	(25,29)	(5,2)	(12,1)	(7,0)	(18,0)	(21,0)	(48,0)	(2,3)	(-5,0)	(27,0)	
L1D -24>	(22,25)	(28,45)	(9,13)	(-1,3)	(5,113)	(12,28)	(-5,55)	(-9,28)	(-4,28)	(17,27)	(1,3)	(21,3)	(0,7)	(2,12)	(31,24)	(4,1)	
L1D -23>	(268,3)	(1,7)	(8,13)	(5,13)	(2,20)	(12,27)	(6,12)	(27,14)	(0,2)	(42,1)	(22,3)	(32,13)	(26,13)	(23,124)	(7,13)	(21,1)	
L1D -22>	(-21,7)	(22,37)	(23,32)	(21,31)	(0,9)	(209,6)	(1,49)	(204,6)	(225,18)	(5,89)	(2,22)	(-4,20)	(26,23)	(7,4)	(55,18)	(6,21)	
L1D -21>	(-2,30)	(39,7)	(10,56)	(40,12)	(0,37)	(38,7)	(37,11)	(2,65)	(1,83)	(6,24)	(5,74)	(9,89)	(42,1)	(24,6)	(15,49)	(26,22)	
L1D -20>	(20,39)	(0,77)	(204,15)	(13,33)	(-5,13)	(5,95)	(24,1)	(9,13)	(1,14)	(70,5)	(8,14)	(-4,14)	(16,12)	(14,13)	(15,14)	(4,12)	
L1D -19>	(1,34)	(16,21)	(2,45)	(0,4)	(11,27)	(6,83)	(5,83)	(269,21)	(-21,13)	(12,1)	(24,20)	(9,3)	(8,21)	(28,18)	(-32,21)	(13,21)	
L1D -18>	(-1,11)	(-21,2)	(47,2)	(-115,27)	(6,27)	(1,114)	(2,121)	(5,91)	(0,4)	(-5,1)	(-137,1)	(12,28)	(8,7)	(31,3)	(20,2)	(11,0)	
L1D -17>	(13,5)	(16,2)	(1,104)	(17,1)	(9,10)	(23,49)	(3,77)	(15,6)	(-5,10)	(5,24)	(8,2)	(12,9)	(-10,11)	(131,10)	(2,3)	(0,1)	
L1D -16>	(14,0)	(-13,4)	(-1,0)	(11,4)	(1,0)	(3,46)	(2,7)	(-5,5)	(-9,4)	(4,5)	(20,3)	(-35,4)	(6,14)	(5,85)	(-12,4)	(18,4)	
L1D -15>	(15,28)	(1,9)	(-1,4)	(0,2)	(41,14)	(2,85)	(30,12)	(4,42)	(136,12)	(17,15)	(9,53)	(-207,13)	(5,103)	(326,14)	(21,14)	(-4,12)	
L1D -14>	(1,51)	(0,14)	(-21,9)	(4,13)	(2,21)	(-6,20)	(204,1)	(-3,1)	(17,4)	(50,5)	(19,15)	(8,83)	(5,73)	(-16,8)	(6,14)	(9,14)	
L1D -13>	(1,38)	(17,1)	(18,20)	(7,16)	(-36,21)	(26,11)	(70,2)	(2,30)	(14,31)	(9,10)	(6,65)	(11,21)	(5,20)	(-5,5)	(-21,5)	(-71,5)	
L1D -12>	(1,63)	(2,46)	(-9,6)	(-1,1)	(27,6)	(-4,1)	(21,5)	(41,6)	(7,48)	(6,35)	(39,6)	(8,7)	(-5,16)	(14,7)	(5,69)	(-17,7)	
L1D -11>	(0,36)	(13,10)	(271,1)	(1,57)	(2,64)	(11,16)	(-4,5)	(21,5)	(7,29)	(5,111)	(6,42)	(24,9)	(45,6)	(22,5)	(-5,5)	(16,5)	
L1D -10>	(2,101)	(144,1)	(-127,4)	(7,5)	(1,16)	(10,17)	(15,14)	(-5,5)	(0,6)	(4,11)	(-20,4)	(-326,4)	(5,69)	(14,4)	(-7,4)	(-4,5)	
L1D -9>	(1,109)	(4,51)	(24,1)	(-16,6)	(-4,13)	(14,16)	(5,20)	(9,11)	(7,8)	(-142,4)	(19,4)	(17,3)	(2,14)	(15,41)	(452,3)	(-5,9)	
L1D -8>	(1,8)	(-32,16)	(-6,23)	(50,2)	(-119,1)	(0,9)	(27,2)	(14,2)	(54,2)	(8,64)	(7,7)	(-5,33)	(13,21)	(4,75)	(-14,15)	(12,49)	
L1D -7>	(1,25)	(0,3)	(2,76)	(-131,1)	(16,17)	(105,7)	(-10,14)	(7,34)	(-13,3)	(-105,7)	(5,54)	(11,85)	(-6,17)	(-5,124)	(6,76)	(9,37)	
L1D -6>	(2,45)	(1,102)	(5,47)	(-17,12)	(-5,46)	(6,81)	(9,45)	(8,31)	(23,9)	(-4,65)	(4,33)	(-7,15)	(-14,1)	(-9,14)	(-8,22)	(19,10)	
L1D -5>	(-26,4)	(16,1)	(5,65)	(2,69)	(1,41)	(43,2)	(10,6)	(-16,7)	(-5,25)	(-12,4)	(-7,5)	(-13,6)	(-8,3)	(15,4)	(-11,4)	(9,10)	
L1D -4>	(4,30)	(0,1)	(1,7)	(-13,2)	(124,2)	(17,4)	(-17,3)	(-112,3)	(-11,4)	(-4,11)	(-5,13)	(9,10)	(8,15)	(-16,5)	(2,103)	(-7,4)	
L1D -3>	(1,88)	(-13,1)	(11,1)	(0,2)	(2,2)	(-6,18)	(-81,1)	(-2,8)	(80,1)	(-40,1)	(13,2)	(-78,1)	(3,5)	(5,1)	(-7,1)	(-1,3)	
L1D -2>	(0,12)	(22,1)	(17,1)	(-11,2)	(1,9)	(3,0)	(-36,1)	(2,80)	(-48,0)	(9,0)	(-41,0)	(5,2)	(-38,0)	(-98,0)	(-298,3)	(-19,0)	
L1D -1>	(1,122)	(83,1)	(-36,1)	(6,3)	(-142,1)	(5,1)	(0,8)	(-33,1)	(-13,11)	(3,1)	(107,3)	(-31,0)	(2,2)	(-1,5)	(-22,1)	(9,4)	
L1D 0>	(-1,1)	(234,1)	(0,80)	(15,1)	(-447,0)	(-263,0)	(121,0)	(6,1)	(-268,0)	(9,0)	(-40,0)	(-7,1)	(-2,0)	(1,0)	(111,0)	(40,1)	
L1D 1>	(1,18)	(5,5)	(7,106)	(-14,1)	(8,26)	(-6,3)	(-11,1)	(4,12)	(-9,2)	(2,4)	(0,1)	(-10,1)	(269,0)	(13,0)	(-13,0)	(-1,10)	
L1D 2>	(-81,5)	(1,31)	(8,40)	(43,1)	(2,30)	(-7,24)	(3,67)	(6,53)	(-2,37)	(4,14)	(7,4)	(5,7)	(-6,56)	(-4,9)	(-12,6)	(-13,12)	
L1D 3>	(1,21)	(-7,15)	(7,111)	(-9,19)	(-277,1)	(0,12)	(6,20)	(-5,16)	(5,42)	(8,28)	(3,2)	(-84,16)	(4,3)	(20,2)	(107,1)	(13,15)	
L1D 4>	(-4,12)	(2,24)	(-15,1)	(-8,4)	(5,8)	(19,1)	(-10,5)	(-11,3)	(0,1)	(4,82)	(6,1)	(8,13)	(-37,2)	(7,62)	(17,1)	(-5,3)	
L1D 5>	(2,71)	(-5,49)	(1,117)	(13,11)	(3,94)	(-509,1)	(4,9)	(-24,4)	(5,76)	(-11,10)	(-9,40)	(-10,32)	(6,43)	(8,15)	(-13,13)	(-6,10)	
L1D 6>	(1,45)	(3,0)	(10,3)	(-20,3)	(107,1)	(-14,2)	(-6,16)	(2,64)	(8,32)	(0,2)	(-12,4)	(7,2)	(-11,12)	(5,7)	(6,6)	(9,4)	
L1D 7>	(1,113)	(-511,2)	(8,1)	(5,0)	(4,0)	(-15,0)	(-77,0)	(175,0)	(-12,0)	(2,0)	(-7,0)	(3,0)	(-19,0)	(-146,0)	(-13,0)	(-131,0)	
L1D 8>	(-8,1)	(-13,1)	(-80,0)	(-12,0)	(7,15)	(-504,0)	(-234,0)	(12,0)	(5,18)	(2,7)	(8,95)	(3,4)	(6,9)	(4,7)	(1,2)	(-4,5)	
L1D 9>	(5,116)	(1,44)	(-9,20)	(-78,1)	(2,71)	(-5,95)	(-10,4)	(77,5)	(-15,16)	(0,7)	(6,12)	(9,15)	(12,7)	(7,20)	(-4,112)	(4,8)	
L1D 10>	(-44,8)	(28,7)	(-3,27)	(-1,4)	(-21,33)	(0,30)	(-6,1)	(-10,62)	(-11,35)	(-22,4)	(2,37)	(-7,33)	(-5,83)	(1,67)	(-33,4)	(18,15)	
L1D 11>	(-1,15)	(1,23)	(0,95)	(-10,5)	(260,10)	(-30,1)	(-11,55)	(17,11)	(-8,17)	(13,22)	(2,64)	(-6,24)	(-15,16)	(4,13)	(9,37)	(-9,12)	
L1D 12>	(1,66)	(2,73)	(-62,4)	(-10,25)	(-65,1)	(-4,40)	(-7,42)	(6,13)	(32,4)	(-8,31)	(5,72)	(41,4)	(9,15)	(128,12)	(14,13)	(10,13)	
L1D 13>	(-16,94)	(6,22)	(-20,1)	(-6,3)	(-17,10)	(-13,62)	(-11,2)	(57,17)	(2,68)	(-8,53)	(1,36)	(-9,30)	(-7,31)	(-84,10)	(-4,18)	(-19,19)	
L1D 14>	(1,32)	(-13,4)	(-12,5)	(-14,16)	(-10,14)	(-1,83)	(11,14)	(33,1)	(-9,24)	(5,40)	(-5,12)	(-8,27)	(2,112)	(-30,13)	(206,13)	(-24,13)	
L1D 15>	(-17,1)	(-6,7)	(348,7)	(-15,15)	(1,108)	(6,23)	(5,31)	(132,4)	(-20,13)	(-23,8)	(-7,7)	(4,6)	(-5,22)	(7,7)	(-11,7)	(14,6)	
L1D 16>	(1,115)	(3,7)	(5,110)	(-7,20)	(-16,15)	(0,30)	(16,4)	(4,68)	(-21,1)	(-8,37)	(2,24)	(-11,72)	(-5,73)	(18,33)	(-6,36)	(-13,34)	
L1D 17>	(0,13)	(-38,4)	(-20,3)	(-1,23)	(2,27)	(-310,14)	(-11,13)	(-13,13)	(-9,16)	(8,14)	(-15,1)	(87,14)	(-71,13)	(-8,65)	(-12,11)	(5,28)	
L1D 18>	(-22,2)	(-26,29)	(2,66)	(-12,58)	(1,119)	(-5,56)	(-209,30)	(-8,30)	(6,30)	(-7,31)	(9,29)	(-10,29)	(5,55)	(-16,1)	(-18,2)	(-9,30)	
L1D 19>	(-7,8)	(1,85)	(323,7)	(-11,17)	(-17,3)	(-29,23)	(-12,1)	(-8,11)	(81,16)	(2,34)	(11,16)	(6,17)	(-14,16)	(5,17)	(-5,34)	(-15,17)	
L1D 20>	(-20,86)	(0,35)	(323,21)	(-30,22)	(2,63)	(-56,2)	(-1,4)	(-7,8)	(-9,21)	(-4,21)	(5,22)	(-13,20)	(188,6)	(50,1)	(184,7)	(107,1)	
L1D 21>	(1,72)	(-21,6)	(-22,44)	(0,12)	(3,5)	(-5,0)	(-254,0)	(107,19)	(-6,20)	(2,5)	(6,18)	(-24,0)	(-17,9)	(-134,14)	(-8,1)	(9,1)	
L1D 22>	(1,43)	(-22,69)	(288,2)	(-30,12)	(0,16)	(-5,20)	(-24,8)	(-18,36)	(2,89)	(4,2)	(-8,3)	(5,69)	(85,1)	(-4,20)	(-20,1)	(-1,6)	
L1D 23>	(-20,36)	(-301,1)	(10,1)	(-33,3)	(1,53)	(-22,7)	(-5,10)	(-26,1)	(-29,0)	(-8,9)	(-10,0)	(174,2)	(17,10)	(-6,10)	(-23,100)	(0,14)	
L1D 24>	(10,87)	(-15,42)	(7,49)	(-33,16)	(0,1)	(-4,2)	(132,51)	(6,8)	(31,53)	(22,47)	(-9,51)	(288,52)	(-20,53)	(1,27)	(-2,3)	(2,10)	
L1D 25>	(13,112)	(5,53)	(-30,52)	(1,11)	(-23,8)	(107,101)	(-5,26)	(-26,3)	(-29,1)	(168,3)	(-2,2)	(-301,50)	(-249,1)	(-25,49)	(-33,1)	(75,1)	
L1D 26>	(-135,53)	(2,66)	(1,58)	(-5,5)	(5,55)	(-9,19)	(8,57)	(-7,52)	(4,55)	(-21,54)	(0,36)	(-13,1)	(-33,14)	(10,16)	(-18,43)	(-28,8)	
L1D 27>	(2,89)	(-7,45)	(1,49)	(4,44)	(-24,42)	(-1,6)	(0,2)	(-95,1)	(-27,1)	(-254,1)	(-249,3)	(-9,1)	(-26,1)	(7,3)	(-2,1)	(-29,1)	
L1D 28>	(-3,99)	(-33,123)	(10,53)	(0,55)	(-26,1)	(1,93)	(2,50)	(4,45)	(-36,3)	(5,1)	(-22,1)	(107,1)	(-258,1)	(-276,1)	(12,1)	(40,1)	
L1D 29>	(5,83)	(3,81)	(-19,11)	(1,7)	(2,1)	(9,2)	(-33,49)	(-254,1)	(-1,3)	(-249,2)	(-28,1)	(-95,1)	(131,51)	(-8,51)	(-18,2)	(-93,1)	
L1D 30>	(-33,33)	(2,84)	(-22,27)	(0,22)	(11,53)	(-30,12)	(1,24)	(-138,28)	(-10,27)	(6,28)	(3,3)	(-274,1)	(84,1)	(-31,1)	(-23,0)	(-20,0)	
L1D 31>	(1,95)	(-15,22)	(-12,1)	(-10,0)	(-240,1)	(-95,0)	(-2,0)	(6,1)	(-5,0)	(0,0)	(-249,0)	(10,0)	(-28,0)	(-33,0)	(-29,1)	(-34,0)	
L1D 32>	(96,0)	(-32,97)	(-5,6)	(128,0)	(6,0)	(-1,0)	(1,0)	(0,2)	(-148,0)	(-194,0)	(-12,6)	(-200,0)	(-171,0)	(-177,0)	(16,0)	(266,0)	
L1D 33>	(-1,26)	(15,1)	(265,2)	(-149,2)	(0,1)	(-33,88)	(-381,24)	(1,2)	(10,1)	(-9,19)	(42,5)	(-34,0)	(107,16)	(-12,18)	(6,17)	(-240,16)	
L1D 34>	(-274,2)	(-3,0)	(3,119)	(-1,0)	(-33,0)	(0,0)	(20,0)	(-30,0)	(1,1)	(6,1)	(-34,2)	(-20,0)	(1,0)	(1,0)	(1,0)	(1,0)	
L1D 35>	(-35,12)	(46,87)	(7,7)	(10,1)	(1,3)	(0,4)	(5,104)	(107,11)	(-254,1)	(-30,0)	(51,0)	(143,50)	(-33,6)	(-3,0)	(-2,4)	(-249,0)	
L1D 36>	(2,102)	(-3,6)	(5,1)	(0,7)	(-35,1)	(-17,0)	(-36,7)	(-34,1)	(-5,16)	(-2,0)	(8,0)	(1,1)	(1,0)	(1,0)	(1,0)	(1,0)	
L1D 37>	(-39,94)	(5,55)	(2,13)	(-6,56)	(-18,4)	(0,5)	(7,52)	(1,2)	(-3,2)	(10,46)	(-5,2)	(-44,1)	(-30,1)	(-37,7)	(-2,1)	(-45,1)	
L1D 38>	(-2,58)	(-40,58)	(1,7)	(-36,87)	(6,1)	(2,58)	(-4,47)	(0,22)	(-24,1)	(-50,1)	(-38,21)	(-33,100)	(-47,8)	(-5,3)	(-29,1)	(-274,2)	
L1D 39>	(-39,15)	(1,124)	(-5,38)	(-18,36)	(-37,20)	(0,1)	(2,1)	(-2,19)	(-41,8)	(9,3)	(-63,1)	(-22,1)	(17,1)	(-279,1)	(1,0)	(1,0)	
L1D 40>	(-40,87)	(-38,7)	(0,0)	(1,1)	(-8,19)	(2,0)	(-30,7)	(-5,0)	(-42,0)	(-41,0)	(5,0)	(76,0)	(50,0)	(-10,0)	(1,0)	(1,0)	
L1D 41>	(-41,99)	(11,94)	(-55,94)	(8,47)	(4,46)	(-39,63)	(14,47)	(1,34)	(-12,39)	(-19,38)	(-47,46)	(-40,1)	(9,1)	(2,23)	(0,1)	(6,1)	
L1D 42>	(-2,2)	(1,17)	(0,15)	(-50,5)	(-34,15)	(2,18)	(-1,0)	(-112,0)	(-42,72)	(-47,0)	(41,0)	(-33,0)	(-10,15)	(10,0)	(8,1)	(-28,0)	
L1D 43>	(-1,0)	(6,9)	(9,14)	(-10,14)	(1,0)	(0,2)	(-3,0)	(-36,12)	(-2,1)	(-34,0)	(-249,0)	(-33,0)	(-43,1)	(-254,0)	(5,2)	(2,98)	
L1D 44>	(10,90)	(30,1)	(-37,1)	(5,45)	(2,45)	(-43,2)	(-20,2)	(-46,1)	(-30,1)	(0,4)	(-1,1)	(-5,1)	(-17,2)	(1,3)	(1,0)	(1,0)	
L1D 45>	(-45,111)	(-47,2)	(-131,55)	(1,56)	(0,1)	(-41,2)	(-43,3)	(-2,2)	(9,2)	(-3,2)	(-20,1)	(-46,3)	(-65,1)	(1,0)	(1,0)	(1,0)	
L1D 46>	(-31,86)	(-108,86)	(-42,4)	(2,55)	(5,1)	(75,1)	(-23,1)	(-44,1)	(-32,1)	(-46,1)	(-3,0)	(-49,0)	(4,0)	(3,0)	(1,0)	(1,0)	
L1D 47>	(-77,13)	(0,71)	(-42,1)	(-47,10)	(-397,7)	(-393,2)	(-358,10)	(-6,1)	(-46,1)	(-372,0)	(-38,0)	(-44,0)	(1,0)	(1,0)	(1,0)	(1,0)	
L1D 48>	(-108,86)	(-5,1)	(-3,1)	(0,1)	(-34,1)	(174,1)	(2,0)	(-49,0)	(1,1)	(4,0)	(1,0)	(1,0)	(1,0)	(1,0)	(1,0)	(1,0)	
L1D 49>	(0,5)	(1,18)	(5,102)	(2,9)	(9,11)	(-254,5)	(-2,3)	(4,3)	(-249,1)	(-1,2)	(-11,1)	(8,1)	(-6,9)	(1,0)	(1,0)	(1,0)	
L1D 50>	(-47,68)	(-45,55)	(0,4)	(-50,26)	(-41,11)	(32,1)	(-1,1)	(-57,3)	(-42,11)	(-70,5)	(-5,1)	(-10,1)	(-6,2)	(1,3)	(-2,1)	(1,0)	
L1D 51>	(1,89)	(-254,1)	(-5,1)	(9,2)	(-64,0)	(-249,1)	(-74,0)	(2,0)	(-3,0)	(-51,0)	(-19,0)	(53,0)	(-47,0)	(-84,0)	(-79,0)	(-50,0)	
L1D 52>	(-50,109)	(-1,6)	(1,3)	(0,11)	(8,1)	(2,14)	(205,6)	(-54,1)	(-2,3)	(6,1)	(4,2)	(-52,3)	(-38,3)	(81,1)	(-20,1)	(36,1)	
L1D 53>	(-1,1)	(1,86)	(-54,1)	(-23,2)	(0,1)	(-3,2)	(-254,0)	(-45,0)	(8,0)	(2,0)	(1,0)	(1,0)	(1,0)	(1,0)	(1,0)	(1,0)	
L1D 54>	(2,102)	(-44,8)	(-47,17)	(9,4)	(0,5)	(10,2)	(-1,2)	(203,5)	(8,2)	(4,2)	(-52,1)	(30,2)	(-40,7)	(1,4)	(-54,4)	(-23,1)	
L1D 55>	(-3,5)	(-23,100)	(-59,1)	(1,6)	(30,1)	(-111,1)	(-55,2)	(-1,3)	(-249,1)	(-254,4)	(-53,12)	(-27,1)	(-2,1)	(9,3)	(4,2)	(-56,3)	
L1D 56>	(2,9)	(-4,15)	(-30,1)	(9,6)	(-59,2)	(1,1)	(-58,3)	(201,4)	(0,2)	(6,3)	(203,1)	(-56,2)	(-42,2)	(-3,2)	(3,3)	(-52,1)	
L1D 57>	(-57,69)	(173,13)	(6,34)	(-4,32)	(-70,60)	(2,1)	(1,1)	(-10,1)	(-2,3)	(1,0)	(1,0)	(1,0)	(1,0)	(1,0)	(1,0)	(1,0)	
L1D 58>	(-3,9)	(-59,4)	(1,3)	(-60,3)	(96,1)	(199,4)	(81,1)	(2,1)	(4,2)	(0,3)	(6,1)	(8,1)	(-58,1)	(-44,2)	(-10,1)	(1,0)	
L1D 59>	(-5,96)	(-1,1)	(0,2)	(-2,1)	(-255,1)	(1,14)	(9,18)	(-254,4)	(-59,1)	(-249,1)	(-60,1)	(-99,1)	(-35,1)	(1,0)	(1,0)	(1,0)	
L1D 60>	(0,88)	(-60,41)	(-1,15)	(-58,5)	(-2,2)	(-70,3)	(-20,2)	(197,5)	(-3,3)	(2,4)	(-61,1)	(6,1)	(1,5)	(-65,2)	(10,1)	(41,1)	
L1D 61>	(0,95)	(1,116)	(2,1)	(-30,1)	(5,1)	(-61,1)	(-5,1)	(-408,15)	(-109,0)	(9,1)	(-57,0)	(-2,0)	(1,0)	(1,0)	(1,0)	(1,0)	
L1D 62>	(2,112)	(1,7)	(5,106)	(-1,2)	(0,7)	(195,8)	(8,1)	(4,3)	(197,1)	(6,1)	(9,2)	(-62,17)	(-48,2)	(-5,2)	(-2,1)	(-3,1)	
L1D 63>	(-310,104)	(0,79)	(-249,1)	(-1,6)	(2,6)	(-63,6)	(5,7)	(-64,2)	(-3,4)	(4,1)	(-254,2)	(-101,1)	(228,1)	(-54,1)	(-5,1)	(-127,1)	
L1D 64>	(2,2)	(6,5)	(193,5)	(-4,4)	(0,7)	(8,2)	(4,3)	(-50,4)	(-63,2)	(10,2)	(-62,5)	(1,2)	(-2,1)	(-20,1)	(-64,1)	(-17,63)	
L1D 65>	(5,103)	(-1,2)	(1,2)	(-3,1)	(-65,4)	(-50,1)	(0,4)	(2,1)	(71,1)	(3,1)	(-57,1)	(-63,9)	(-40,1)	(-66,1)	(9,1)	(-2,1)	
L1D 66>	(6,102)	(3,2)	(-5,53)	(-4,53)	(-66,2)	(9,2)	(-69,1)	(-104,1)	(2,4)	(-3,1)	(-62,1)	(-85,1)	(1,2)	(1,0)	(1,0)	(1,0)	
L1D 67>	(-66,1)	(-2,1)	(9,94)	(-99,0)	(0,1)	(30,0)	(4,1)	(1,0)	(1,0)	(1,0)	(1,0)	(1,0)	(1,0)	(1,0)	(1,0)	(1,0)	
L1D 68>	(2,110)	(0,4)	(-69,5)	(1,5)	(-70,6)	(189,4)	(-62,3)	(4,3)	(8,1)	(191,1)	(6,1)	(81,1)	(-68,1)	(-54,1)	(-3,3)	(-4,1)	
L1D 69>	(1,7)	(-254,3)	(-2,1)	(9,12)	(-69,1)	(-25,1)	(0,3)	(1,0)	(1,0)	(1,0)	(1,0)	(1,0)	(1,0)	(1,0)	(1,0)	(1,0)	
L1D 70>	(-2,1)	(0,34)	(2,61)	(-78,12)	(-70,81)	(-40,2)	(-20,2)	(-6,75)	(5,74)	(-57,16)	(-74,1)	(187,1)	(-1,4)	(-68,1)	(-15,1)	(-71,2)	
L1D 71>	(-74,2)	(0,9)	(10,1)	(2,3)	(1,21)	(-70,4)	(-3,4)	(6,6)	(-71,1)	(-254,1)	(9,2)	(-84,1)	(-67,1)	(-64,1)	(1,0)	(1,0)	
L1D 72>	(0,8)	(2,4)	(5,10)	(-80,37)	(-70,12)	(-74,3)	(185,5)	(1,1)	(187,1)	(4,1)	(8,2)	(-72,4)	(-58,1)	(-2,1)	(-56,1)	(-73,1)	
L1D 73>	(1,13)	(-63,108)	(0,7)	(-71,1)	(5,100)	(6,92)	(-3,4)	(-73,2)	(-74,1)	(-64,1)	(-40,1)	(-254,1)	(9,2)	(10,1)	(13,1)	(94,1)	
L1D 74>	(-50,2)	(-76,4)	(1,4)	(183,3)	(-70,95)	(0,8)	(6,2)	(-1,2)	(-95,1)	(-60,3)	(9,3)	(-73,4)	(-75,2)	(-56,1)	(2,2)	(-64,1)	
L1D 75>	(-50,97)	(0,39)	(-449,7)	(-112,8)	(-16,1)	(-73,7)	(1,1)	(-254,2)	(9,2)	(3,2)	(4,1)	(-2,2)	(-3,3)	(11,1)	(2,2)	(-65,1)	
L1D 76>	(6,107)	(84,4)	(3,2)	(2,11)	(-8,29)	(-74,54)	(-3,0)	(181,0)	(1,0)	(9,0)	(-79,0)	(-75,0)	(-114,0)	(-64,0)	(-73,0)	(-72,0)	
L1D 77>	(2,77)	(1,4)	(0,0)	(5,25)	(-449,36)	(6,4)	(-34,0)	(15,0)	(-10,0)	(1,0)	(1,0)	(1,0)	(1,0)	(1,0)	(1,0)	(1,0)	
L1D 78>	(84,101)	(5,1)	(-8,40)	(-80,1)	(179,4)	(2,11)	(6,20)	(-79,4)	(-78,3)	(-64,2)	(-62,1)	(-3,6)	(0,2)	(1,1)	(7,1)	(-4,1)	
L1D 79>	(5,78)	(1,24)	(9,0)	(-70,0)	(2,25)	(-77,0)	(-83,0)	(-5,0)	(-89,0)	(1,0)	(1,0)	(1,0)	(1,0)	(1,0)	(1,0)	(1,0)	
L1D 80>	(-4,105)	(-80,7)	(0,33)	(177,7)	(2,12)	(-60,2)	(70,1)	(1,7)	(-77,1)	(-1,8)	(-50,2)	(-10,2)	(-3,1)	(10,2)	(25,1)	(51,1)	
L1D 81>	(5,102)	(1,3)	(2,2)	(0,4)	(176,2)	(-81,2)	(-84,2)	(9,1)	(-1,1)	(-139,1)	(-80,3)	(3,1)	(51,1)	(1,0)	(1,0)	(1,0)	
L1D 82>	(-1,3)	(2,17)	(0,2)	(-89,105)	(175,8)	(8,1)	(-102,1)	(5,3)	(-62,1)	(-82,2)	(-2,2)	(-68,1)	(-8,19)	(4,1)	(-58,1)	(3,1)	
L1D 83>	(-84,4)	(-8,35)	(1,14)	(2,65)	(0,4)	(303,35)	(-3,7)	(-83,3)	(-284,3)	(250,1)	(-9,8)	(-254,2)	(-90,1)	(249,62)	(-39,1)	(-5,1)	
L1D 84>	(-5,109)	(-84,1)	(-83,1)	(2,46)	(0,2)	(-8,37)	(-70,1)	(-284,44)	(-10,2)	(284,1)	(-1,1)	(1,2)	(8,1)	(-19,1)	(-95,1)	(-48,1)	
L1D 85>	(2,4)	(1,23)	(5,1)	(0,7)	(-9,85)	(-83,9)	(-125,1)	(-254,1)	(56,1)	(21,1)	(10,1)	(-5,1)	(-86,3)	(9,2)	(-2,1)	(1,0)	
L1D 86>	(-29,0)	(2,76)	(-4,1)	(5,40)	(-85,0)	(27,0)	(156,1)	(9,1)	(-86,1)	(-1,0)	(1,1)	(-217,2)	(-58,0)	(49,0)	(3,0)	(-90,0)	
L1D 87>	(-4,103)	(1,12)	(16,1)	(-14,1)	(107,97)	(0,2)	(2,2)	(-1,1)	(-3,1)	(-2,4)	(-30,1)	(-217,1)	(-85,1)	(-86,1)	(1,0)	(1,0)	
L1D 88>	(2,13)	(9,109)	(-65,107)	(-452,109)	(-217,94)	(-1,2)	(-3,5)	(25,1)	(-74,2)	(-86,5)	(-89,3)	(-19,1)	(1,2)	(3,1)	(1,0)	(1,0)	
L1D 89>	(1,5)	(-2,1)	(9,2)	(-1,1)	(-3,1)	(0,2)	(-210,1)	(1,0)	(1,0)	(1,0)	(1,0)	(1,0)	(1,0)	(1,0)	(1,0)	(1,0)	
L1D 90>	(4,45)	(-86,95)	(-55,1)	(-3,4)	(0,17)	(-76,3)	(2,10)	(-88,3)	(-2,3)	(1,2)	(-1,2)	(-60,1)	(-90,8)	(-24,1)	(-15,1)	(-58,1)	
L1D 91>	(-87,1)	(-254,1)	(-91,1)	(4,105)	(9,1)	(1,0)	(1,0)	(1,0)	(1,0)	(1,0)	(1,0)	(1,0)	(1,0)	(1,0)	(1,0)	(1,0)	
L1D 92>	(2,17)	(-92,2)	(-78,2)	(-99,16)	(-24,1)	(-88,1)	(-134,1)	(-90,2)	(-58,1)	(0,1)	(1,2)	(1,0)	(1,0)	(1,0)	(1,0)	(1,0)	
L1D 93>	(2,1)	(-1,1)	(-88,3)	(1,1)	(-3,5)	(-93,1)	(46,1)	(-10,1)	(-94,1)	(9,1)	(0,8)	(-89,1)	(-254,1)	(3,1)	(-30,1)	(30,1)	
L1D 94>	(-90,100)	(1,103)	(2,4)	(-60,1)	(0,5)	(-58,1)	(28,1)	(9,1)	(-93,2)	(-50,2)	(-70,2)	(-30,1)	(-40,2)	(-89,1)	(-94,1)	(1,0)	
L1D 95>	(-92,2)	(-3,7)	(-10,2)	(0,17)	(-93,9)	(-95,1)	(-120,1)	(2,1)	(-254,1)	(9,1)	(88,1)	(-90,2)	(3,4)	(-24,1)	(-96,1)	(-15,1)	
L1D 96>	(2,6)	(-92,2)	(-91,99)	(-126,1)	(-3,3)	(-104,1)	(-95,2)	(3,1)	(-154,1)	(-99,2)	(-149,1)	(1,2)	(-30,1)	(-10,1)	(-102,1)	(88,1)	
L1D 97>	(-91,11)	(-96,1)	(-89,1)	(-159,1)	(1,2)	(-62,1)	(3,5)	(0,13)	(-22,2)	(-24,1)	(-26,2)	(-48,1)	(-72,2)	(-20,1)	(-2,2)	(-95,1)	
L1D 98>	(140,86)	(-27,1)	(2,51)	(-29,1)	(-100,1)	(-1,1)	(5,2)	(-106,1)	(9,1)	(1,0)	(1,0)	(1,0)	(1,0)	(1,0)	(1,0)	(1,0)	
L1D 99>	(-93,73)	(13,1)	(-11,39)	(-50,2)	(0,3)	(-95,1)	(-31,0)	(-94,0)	(-28,0)	(-30,0)	(-32,0)	(1,2)	(1,0)	(1,0)	(1,0)	(1,0)	
L1D 100>	(-86,1)	(1,8)	(-62,1)	(9,2)	(0,1)	(-98,1)	(-55,1)	(-70,1)	(-34,1)	(-90,1)	(-2,2)	(-101,1)	(1,0)	(1,0)	(1,0)	(1,0)	
L1D 101>	(-118,87)	(-201,86)	(3,2)	(-97,2)	(272,1)	(-28,0)	(0,3)	(1,0)	(-82,0)	(-100,0)	(-3,0)	(-254,0)	(1,0)	(1,0)	(1,0)	(1,0)	
L1D 102>	(-93,88)	(-31,41)	(-1,1)	(8,1)	(9,1)	(-29,1)	(-3,1)	(-102,3)	(2,1)	(-101,1)	(1,0)	(1,0)	(1,0)	(1,0)	(1,0)	(1,0)	
L1D 103>	(-104,1)	(3,1)	(8,57)	(-31,101)	(-17,1)	(0,2)	(-102,0)	(-20,0)	(-22,0)	(-24,0)	(-26,0)	(-27,0)	(-29,0)	(-103,0)	(-74,0)	(2,0)	
L1D 104>	(4,105)	(2,7)	(9,3)	(-31,6)	(-93,12)	(5,9)	(-1,1)	(-3,1)	(-36,1)	(18,1)	(1,1)	(-212,1)	(-106,2)	(88,1)	(0,1)	(1,0)	
L1D 105>	(1,18)	(-212,107)	(-107,117)	(-82,2)	(0,109)	(-22,2)	(-106,1)	(17,3)	(-31,3)	(-68,2)	(3,3)	(-24,2)	(-26,2)	(-28,1)	(-29,1)	(-32,1)	
L1D 106>	(2,82)	(-112,47)	(5,91)	(-280,3)	(-448,2)	(-450,3)	(77,2)	(-130,2)	(-113,65)	(-106,43)	(0,0)	(-107,88)	(161,38)	(-109,1)	(-121,0)	(-118,18)	
L1D 107>	(-46,1)	(161,0)	(2,101)	(-106,9)	(-121,8)	(-117,8)	(-113,8)	(-112,7)	(-357,7)	(-130,8)	(-107,66)	(-450,7)	(17,7)	(-448,8)	(-280,8)	(77,8)	
L1D 108>	(6,8)	(1,3)	(-42,0)	(2,37)	(-108,113)	(5,1)	(0,1)	(-109,2)	(-113,1)	(-3,1)	(30,0)	(1,0)	(1,0)	(1,0)	(1,0)	(1,0)	
L1D 109>	(2,53)	(-107,54)	(-161,53)	(6,88)	(1,4)	(-117,24)	(0,2)	(7,1)	(-127,1)	(-2,1)	(-26,0)	(3,1)	(-28,0)	(-78,0)	(-25,0)	(1,0)	
L1D 110>	(2,79)	(-4,2)	(4,1)	(-111,1)	(0,0)	(-30,0)	(-7,3)	(-29,0)	(1,0)	(1,0)	(1,0)	(1,0)	(1,0)	(1,0)	(1,0)	(1,0)	
L1D 111>	(2,9)	(-4,71)	(4,35)	(5,3)	(-5,0)	(0,2)	(7,33)	(-113,10)	(-82,0)	(3,1)	(-24,0)	(-28,0)	(-74,8)	(1,1)	(-68,0)	(-41,76)	
L1D 112>	(-99,94)	(-5,42)	(-7,38)	(0,1)	(2,3)	(-111,1)	(1,1)	(1,0)	(1,0)	(1,0)	(1,0)	(1,0)	(1,0)	(1,0)	(1,0)	(1,0)	
L1D 113>	(1,19)	(14,11)	(0,4)	(-1,4)	(2,4)	(3,8)	(-255,5)	(-25,2)	(25,1)	(-28,1)	(-113,69)	(-3,3)	(-114,3)	(4,1)	(-4,1)	(6,1)	
L1D 114>	(2,113)	(-93,1)	(-255,1)	(-31,1)	(-2,2)	(-108,1)	(9,2)	(1,1)	(30,3)	(-107,1)	(-70,1)	(1,0)	(1,0)	(1,0)	(1,0)	(1,0)	
L1D 115>	(3,2)	(-56,1)	(2,43)	(-116,1)	(-1,0)	(1,90)	(-112,43)	(0,0)	(-27,0)	(21,0)	(1,0)	(1,0)	(1,0)	(1,0)	(1,0)	(1,0)	
L1D 116>	(1,109)	(2,12)	(30,100)	(0,2)	(-33,1)	(-3,1)	(-117,4)	(-112,1)	(-24,1)	(-77,1)	(-111,1)	(1,0)	(1,0)	(1,0)	(1,0)	(1,0)	
L1D 117>	(1,110)	(-117,98)	(2,7)	(15,2)	(-254,1)	(-94,1)	(-1,1)	(1,0)	(1,0)	(1,0)	(1,0)	(1,0)	(1,0)	(1,0)	(1,0)	(1,0)	
L1D 118>	(5,3)	(2,108)	(-111,109)	(-284,9)	(4,1)	(-118,2)	(6,1)	(-3,2)	(-4,2)	(1,1)	(0,1)	(1,0)	(1,0)	(1,0)	(1,0)	(1,0)	
L1D 119>	(15,108)	(1,115)	(88,93)	(2,8)	(-284,93)	(-254,1)	(0,4)	(-5,1)	(1,0)	(1,0)	(1,0)	(1,0)	(1,0)	(1,0)	(1,0)	(1,0)	
L1D 120>	(2,2)	(-4,106)	(5,107)	(-106,7)	(-3,2)	(-305,100)	(4,7)	(-22,2)	(1,1)	(-19,1)	(-118,1)	(-1,1)	(-107,1)	(-227,1)	(-102,1)	(-2,1)	
L1D 121>	(-106,97)	(0,1)	(3,2)	(-113,1)	(-79,1)	(-254,3)	(-120,1)	(-127,3)	(-3,2)	(-1,2)	(2,4)	(5,6)	(-124,1)	(8,1)	(-5,1)	(9,1)	
L1D 122>	(-127,96)	(1,5)	(-133,96)	(88,3)	(-159,1)	(-22,1)	(-4,3)	(-139,1)	(2,3)	(-3,1)	(-128,1)	(-108,1)	(-122,1)	(1,0)	(1,0)	(1,0)	
L1D 123>	(3,45)	(-1,2)	(-133,10)	(-111,105)	(-122,1)	(9,1)	(2,2)	(6,5)	(-19,1)	(-254,1)	(-3,3)	(-124,1)	(-115,2)	(1,1)	(1,0)	(1,0)	
L1D 124>	(-4,101)	(-5,90)	(1,5)	(2,4)	(19,1)	(9,6)	(-22,1)	(-134,1)	(1,0)	(1,0)	(1,0)	(1,0)	(1,0)	(1,0)	(1,0)	(1,0)	
L1D 125>	(1,4)	(9,90)	(-118,2)	(2,1)	(-5,1)	(-12,1)	(0,1)	(-146,1)	(-126,1)	(1,0)	(1,0)	(1,0)	(1,0)	(1,0)	(1,0)	(1,0)	
L1D 126>	(-118,104)	(-129,2)	(-111,2)	(-124,1)	(1,1)	(-87,1)	(-4,7)	(2,1)	(-9,1)	(-2,1)	(1,0)	(1,0)	(1,0)	(1,0)	(1,0)	(1,0)	
L1D 127>	(1,111)	(-2,1)	(-114,1)	(-254,1)	(-29,1)	(5,1)	(-125,1)	(-5,1)	(1,0)	(1,0)	(1,0)	(1,0)	(1,0)	(1,0)	(1,0)	(1,0)	
L1D 128>	(-4,100)	(4,1)	(2,3)	(-14,1)	(-3,2)	(-142,1)	(-35,1)	(-90,1)	(-160,1)	(1,0)	(1,0)	(1,0)	(1,0)	(1,0)	(1,0)	(1,0)	
L1D 129>	(-114,102)	(-5,9)	(2,5)	(-3,2)	(1,1)	(-106,1)	(7,1)	(-126,1)	(1,0)	(1,0)	(1,0)	(1,0)	(1,0)	(1,0)	(1,0)	(1,0)	
L1D 130>	(-5,102)	(2,4)	(-4,4)	(74,2)	(-3,1)	(16,1)	(-1,2)	(-19,1)	(-253,2)	(-124,1)	(22,2)	(15,1)	(1,1)	(18,1)	(-2,1)	(1,0)	
L1D 131>	(-126,71)	(-5,36)	(-134,0)	(-130,0)	(0,0)	(2,0)	(-47,0)	(1,2)	(-128,0)	(6,1)	(18,0)	(1,0)	(1,0)	(1,0)	(1,0)	(1,0)	
L1D 132>	(-12,102)	(1,112)	(2,93)	(22,104)	(6,103)	(-4,103)	(-126,11)	(-113,3)	(3,1)	(74,94)	(-5,2)	(-2,1)	(-6,1)	(1,0)	(1,0)	(1,0)	
L1D 133>	(1,2)	(-3,1)	(-19,1)	(-99,1)	(-132,1)	(125,1)	(-90,1)	(2,1)	(-139,1)	(-126,1)	(1,0)	(1,0)	(1,0)	(1,0)	(1,0)	(1,0)	
L1D 134>	(115,12)	(2,12)	(-113,96)	(0,1)	(-132,1)	(4,1)	(1,1)	(5,1)	(9,1)	(1,0)	(1,0)	(1,0)	(1,0)	(1,0)	(1,0)	(1,0)	
L1D 135>	(-137,3)	(0,2)	(121,1)	(2,1)	(-2,2)	(-80,1)	(-90,1)	(16,1)	(1,2)	(-4,1)	(-118,1)	(-114,1)	(-136,1)	(1,0)	(1,0)	(1,0)	
L1D 136>	(5,101)	(113,14)	(116,3)	(86,1)	(0,3)	(88,1)	(1,4)	(-139,2)	(-3,1)	(-149,2)	(1,0)	(1,0)	(1,0)	(1,0)	(1,0)	(1,0)	
L1D 137>	(-137,105)	(1,1)	(-6,1)	(-9,1)	(1,0)	(1,0)	(1,0)	(1,0)	(1,0)	(1,0)	(1,0)	(1,0)	(1,0)	(1,0)	(1,0)	(1,0)	
L1D 138>	(32,121)	(2,1)	(-4,1)	(-138,1)	(114,0)	(1,0)	(1,0)	(1,0)	(1,0)	(1,0)	(1,0)	(1,0)	(1,0)	(1,0)	(1,0)	(1,0)	
L1D 139>	(32,83)	(-138,1)	(-133,1)	(-29,1)	(1,0)	(1,0)	(1,0)	(1,0)	(1,0)	(1,0)	(1,0)	(1,0)	(1,0)	(1,0)	(1,0)	(1,0)	
L1D 140>	(1,69)	(-7,47)	(5,1)	(22,1)	(2,2)	(32,112)	(0,1)	(-115,0)	(85,0)	(112,0)	(79,0)	(1,0)	(1,0)	(1,0)	(1,0)	(1,0)	
L1D 141>	(-239,86)	(2,1)	(6,1)	(-140,1)	(1,0)	(1,0)	(1,0)	(1,0)	(1,0)	(1,0)	(1,0)	(1,0)	(1,0)	(1,0)	(1,0)	(1,0)	
L1D 142>	(2,73)	(-213,2)	(-140,0)	(6,0)	(75,0)	(107,1)	(84,0)	(79,0)	(77,0)	(81,0)	(-156,0)	(1,0)	(1,0)	(1,0)	(1,0)	(1,0)	
L1D 143>	(2,52)	(-143,6)	(-213,26)	(-64,74)	(-141,27)	(-150,1)	(-89,0)	(1,0)	(1,0)	(1,0)	(1,0)	(1,0)	(1,0)	(1,0)	(1,0)	(1,0)	
L1D 144>	(6,107)	(-151,38)	(105,9)	(108,1)	(79,1)	(2,72)	(-253,2)	(0,1)	(-3,1)	(-124,1)	(1,3)	(-2,1)	(-149,1)	(1,0)	(1,0)	(1,0)	
[...]
L1D 475>	(-8,1)	(1,0)	(1,0)	(1,0)	(1,0)	(1,0)	(1,0)	(1,0)	(1,0)	(1,0)	(1,0)	(1,0)	(1,0)	(1,0)	(1,0)	(1,0)	
L1D 476>	(1,0)	(1,0)	(1,0)	(1,0)	(1,0)	(1,0)	(1,0)	(1,0)	(1,0)	(1,0)	(1,0)	(1,0)	(1,0)	(1,0)	(1,0)	(1,0)	
L1D 477>	(-8,108)	(1,1)	(1,0)	(1,0)	(1,0)	(1,0)	(1,0)	(1,0)	(1,0)	(1,0)	(1,0)	(1,0)	(1,0)	(1,0)	(1,0)	(1,0)	
L1D 478>	(6,3)	(1,0)	(1,0)	(1,0)	(1,0)	(1,0)	(1,0)	(1,0)	(1,0)	(1,0)	(1,0)	(1,0)	(1,0)	(1,0)	(1,0)	(1,0)	
L1D 479>	(1,0)	(1,0)	(1,0)	(1,0)	(1,0)	(1,0)	(1,0)	(1,0)	(1,0)	(1,0)	(1,0)	(1,0)	(1,0)	(1,0)	(1,0)	(1,0)	
L1D 480>	(-3,1)	(1,0)	(1,0)	(1,0)	(1,0)	(1,0)	(1,0)	(1,0)	(1,0)	(1,0)	(1,0)	(1,0)	(1,0)	(1,0)	(1,0)	(1,0)	
L1D 481>	(6,6)	(1,2)	(1,0)	(1,0)	(1,0)	(1,0)	(1,0)	(1,0)	(1,0)	(1,0)	(1,0)	(1,0)	(1,0)	(1,0)	(1,0)	(1,0)	
L1D 482>	(1,0)	(1,0)	(1,0)	(1,0)	(1,0)	(1,0)	(1,0)	(1,0)	(1,0)	(1,0)	(1,0)	(1,0)	(1,0)	(1,0)	(1,0)	(1,0)	
L1D 483>	(6,1)	(1,0)	(1,0)	(1,0)	(1,0)	(1,0)	(1,0)	(1,0)	(1,0)	(1,0)	(1,0)	(1,0)	(1,0)	(1,0)	(1,0)	(1,0)	
L1D 484>	(1,0)	(1,0)	(1,0)	(1,0)	(1,0)	(1,0)	(1,0)	(1,0)	(1,0)	(1,0)	(1,0)	(1,0)	(1,0)	(1,0)	(1,0)	(1,0)	
L1D 485>	(1,0)	(1,0)	(1,0)	(1,0)	(1,0)	(1,0)	(1,0)	(1,0)	(1,0)	(1,0)	(1,0)	(1,0)	(1,0)	(1,0)	(1,0)	(1,0)	
L1D 486>	(1,0)	(1,0)	(1,0)	(1,0)	(1,0)	(1,0)	(1,0)	(1,0)	(1,0)	(1,0)	(1,0)	(1,0)	(1,0)	(1,0)	(1,0)	(1,0)	
L1D 487>	(1,5)	(1,0)	(1,0)	(1,0)	(1,0)	(1,0)	(1,0)	(1,0)	(1,0)	(1,0)	(1,0)	(1,0)	(1,0)	(1,0)	(1,0)	(1,0)	
L1D 488>	(1,0)	(1,0)	(1,0)	(1,0)	(1,0)	(1,0)	(1,0)	(1,0)	(1,0)	(1,0)	(1,0)	(1,0)	(1,0)	(1,0)	(1,0)	(1,0)	
L1D 489>	(1,93)	(1,0)	(1,0)	(1,0)	(1,0)	(1,0)	(1,0)	(1,0)	(1,0)	(1,0)	(1,0)	(1,0)	(1,0)	(1,0)	(1,0)	(1,0)	
L1D 490>	(1,3)	(1,0)	(1,0)	(1,0)	(1,0)	(1,0)	(1,0)	(1,0)	(1,0)	(1,0)	(1,0)	(1,0)	(1,0)	(1,0)	(1,0)	(1,0)	
L1D 491>	(-343,1)	(1,0)	(1,0)	(1,0)	(1,0)	(1,0)	(1,0)	(1,0)	(1,0)	(1,0)	(1,0)	(1,0)	(1,0)	(1,0)	(1,0)	(1,0)	
L1D 492>	(1,9)	(0,1)	(-343,99)	(1,0)	(1,0)	(1,0)	(1,0)	(1,0)	(1,0)	(1,0)	(1,0)	(1,0)	(1,0)	(1,0)	(1,0)	(1,0)	
L1D 493>	(1,0)	(1,0)	(1,0)	(1,0)	(1,0)	(1,0)	(1,0)	(1,0)	(1,0)	(1,0)	(1,0)	(1,0)	(1,0)	(1,0)	(1,0)	(1,0)	
L1D 494>	(1,1)	(1,0)	(1,0)	(1,0)	(1,0)	(1,0)	(1,0)	(1,0)	(1,0)	(1,0)	(1,0)	(1,0)	(1,0)	(1,0)	(1,0)	(1,0)	
L1D 495>	(0,1)	(1,0)	(1,0)	(1,0)	(1,0)	(1,0)	(1,0)	(1,0)	(1,0)	(1,0)	(1,0)	(1,0)	(1,0)	(1,0)	(1,0)	(1,0)	
L1D 496>	(1,1)	(1,0)	(1,0)	(1,0)	(1,0)	(1,0)	(1,0)	(1,0)	(1,0)	(1,0)	(1,0)	(1,0)	(1,0)	(1,0)	(1,0)	(1,0)	
L1D 497>	(1,0)	(1,0)	(1,0)	(1,0)	(1,0)	(1,0)	(1,0)	(1,0)	(1,0)	(1,0)	(1,0)	(1,0)	(1,0)	(1,0)	(1,0)	(1,0)	
L1D 498>	(2,1)	(1,0)	(1,0)	(1,0)	(1,0)	(1,0)	(1,0)	(1,0)	(1,0)	(1,0)	(1,0)	(1,0)	(1,0)	(1,0)	(1,0)	(1,0)	
L1D 499>	(1,0)	(1,0)	(1,0)	(1,0)	(1,0)	(1,0)	(1,0)	(1,0)	(1,0)	(1,0)	(1,0)	(1,0)	(1,0)	(1,0)	(1,0)	(1,0)	
L1D 500>	(-218,4)	(-95,1)	(1,0)	(1,0)	(1,0)	(1,0)	(1,0)	(1,0)	(1,0)	(1,0)	(1,0)	(1,0)	(1,0)	(1,0)	(1,0)	(1,0)	
L1D 501>	(-218,101)	(2,5)	(1,0)	(1,0)	(1,0)	(1,0)	(1,0)	(1,0)	(1,0)	(1,0)	(1,0)	(1,0)	(1,0)	(1,0)	(1,0)	(1,0)	
L1D 502>	(1,0)	(1,0)	(1,0)	(1,0)	(1,0)	(1,0)	(1,0)	(1,0)	(1,0)	(1,0)	(1,0)	(1,0)	(1,0)	(1,0)	(1,0)	(1,0)	
L1D 503>	(1,0)	(1,0)	(1,0)	(1,0)	(1,0)	(1,0)	(1,0)	(1,0)	(1,0)	(1,0)	(1,0)	(1,0)	(1,0)	(1,0)	(1,0)	(1,0)	
L1D 504>	(1,0)	(1,0)	(1,0)	(1,0)	(1,0)	(1,0)	(1,0)	(1,0)	(1,0)	(1,0)	(1,0)	(1,0)	(1,0)	(1,0)	(1,0)	(1,0)	
L1D 505>	(-3,1)	(1,0)	(1,0)	(1,0)	(1,0)	(1,0)	(1,0)	(1,0)	(1,0)	(1,0)	(1,0)	(1,0)	(1,0)	(1,0)	(1,0)	(1,0)	
L1D 506>	(1,0)	(1,0)	(1,0)	(1,0)	(1,0)	(1,0)	(1,0)	(1,0)	(1,0)	(1,0)	(1,0)	(1,0)	(1,0)	(1,0)	(1,0)	(1,0)	
L1D 507>	(1,0)	(1,0)	(1,0)	(1,0)	(1,0)	(1,0)	(1,0)	(1,0)	(1,0)	(1,0)	(1,0)	(1,0)	(1,0)	(1,0)	(1,0)	(1,0)	
L1D 508>	(1,0)	(1,0)	(1,0)	(1,0)	(1,0)	(1,0)	(1,0)	(1,0)	(1,0)	(1,0)	(1,0)	(1,0)	(1,0)	(1,0)	(1,0)	(1,0)	
L1D 509>	(1,0)	(1,0)	(1,0)	(1,0)	(1,0)	(1,0)	(1,0)	(1,0)	(1,0)	(1,0)	(1,0)	(1,0)	(1,0)	(1,0)	(1,0)	(1,0)	
L1D 510>	(1,0)	(1,0)	(1,0)	(1,0)	(1,0)	(1,0)	(1,0)	(1,0)	(1,0)	(1,0)	(1,0)	(1,0)	(1,0)	(1,0)	(1,0)	(1,0)	
L1D 511>	(1,0)	(1,0)	(1,0)	(1,0)	(1,0)	(1,0)	(1,0)	(1,0)	(1,0)	(1,0)	(1,0)	(1,0)	(1,0)	(1,0)	(1,0)	(1,0)	

L2C -64>	(-8,116)	(1,182)	(0,58)	(-9,161)	(2,50)	(-7,57)	(3,20)	(-5,36)	(-4,19)	(5,15)	(-3,1)	(-10,83)	(-2,44)	(-1,46)	(-6,20)	(4,5)	
L2C -63>	(1,93)	(2,17)	(17,6)	(3,98)	(4,2)	(55,1)	(59,1)	(1,0)	(1,0)	(1,0)	(1,0)	(1,0)	(1,0)	(1,0)	(1,0)	(1,0)	
L2C -62>	(1,234)	(8,1)	(13,2)	(6,36)	(9,1)	(10,5)	(11,2)	(2,3)	(-1,70)	(25,3)	(0,1)	(62,1)	(1,0)	(1,0)	(1,0)	(1,0)	
L2C -61>	(5,5)	(1,110)	(11,1)	(25,3)	(1,0)	(1,0)	(1,0)	(1,0)	(1,0)	(1,0)	(1,0)	(1,0)	(1,0)	(1,0)	(1,0)	(1,0)	
L2C -60>	(1,47)	(13,1)	(2,6)	(11,7)	(9,3)	(37,3)	(14,2)	(3,4)	(-2,1)	(5,26)	(-1,6)	(12,4)	(10,3)	(17,1)	(25,1)	(61,1)	
L2C -59>	(1,48)	(7,1)	(4,1)	(59,2)	(5,3)	(8,3)	(37,11)	(11,4)	(9,2)	(2,3)	(25,1)	(-1,1)	(1,0)	(1,0)	(1,0)	(1,0)	
L2C -58>	(1,77)	(37,4)	(2,11)	(10,2)	(8,2)	(59,2)	(-1,2)	(5,3)	(17,1)	(12,1)	(9,1)	(39,1)	(3,1)	(1,0)	(1,0)	(1,0)	
L2C -57>	(11,4)	(5,8)	(1,237)	(10,3)	(8,1)	(35,2)	(2,7)	(39,1)	(26,1)	(1,0)	(1,0)	(1,0)	(1,0)	(1,0)	(1,0)	(1,0)	
L2C -56>	(5,14)	(-1,31)	(1,238)	(11,1)	(10,18)	(6,2)	(37,2)	(2,11)	(3,1)	(9,1)	(4,1)	(1,0)	(1,0)	(1,0)	(1,0)	(1,0)	
L2C -55>	(1,183)	(7,3)	(0,12)	(5,11)	(55,117)	(57,1)	(2,3)	(11,8)	(37,3)	(9,8)	(3,2)	(20,2)	(4,2)	(10,7)	(-4,2)	(-6,1)	
L2C -54>	(1,59)	(-4,1)	(5,15)	(6,14)	(2,9)	(37,3)	(4,3)	(10,5)	(3,2)	(-1,3)	(11,3)	(7,1)	(1,0)	(1,0)	(1,0)	(1,0)	
L2C -53>	(1,113)	(5,12)	(51,2)	(12,1)	(2,5)	(10,1)	(9,1)	(-4,2)	(11,5)	(17,1)	(-1,1)	(4,3)	(1,0)	(1,0)	(1,0)	(1,0)	
L2C -52>	(1,182)	(5,1)	(18,1)	(8,1)	(4,4)	(-2,1)	(11,6)	(10,8)	(37,2)	(9,1)	(-4,1)	(53,77)	(2,2)	(1,0)	(1,0)	(1,0)	
L2C -51>	(1,133)	(-4,5)	(43,4)	(-3,1)	(10,3)	(37,1)	(5,1)	(20,1)	(3,2)	(-1,70)	(33,1)	(2,3)	(9,2)	(7,1)	(-6,1)	(11,1)	
L2C -50>	(1,99)	(-1,24)	(-4,2)	(43,62)	(4,2)	(48,32)	(9,1)	(5,1)	(12,1)	(10,1)	(2,1)	(11,1)	(51,1)	(1,0)	(1,0)	(1,0)	
L2C -49>	(1,113)	(40,1)	(-1,33)	(43,17)	(0,1)	(-4,2)	(7,1)	(11,2)	(6,1)	(2,1)	(4,1)	(1,0)	(1,0)	(1,0)	(1,0)	(1,0)	
L2C -48>	(1,51)	(25,1)	(40,76)	(-1,1)	(2,3)	(-4,5)	(43,1)	(46,91)	(7,1)	(3,1)	(-2,3)	(54,3)	(39,1)	(11,1)	(45,1)	(47,1)	
L2C -47>	(1,176)	(43,63)	(45,2)	(9,3)	(48,2)	(11,1)	(3,1)	(5,49)	(8,2)	(-1,8)	(49,1)	(46,1)	(1,0)	(1,0)	(1,0)	(1,0)	
L2C -46>	(45,14)	(1,135)	(24,19)	(-10,3)	(47,7)	(-1,1)	(46,5)	(4,1)	(5,10)	(2,6)	(43,3)	(56,63)	(11,1)	(40,1)	(37,6)	(10,2)	
L2C -45>	(1,161)	(-1,46)	(40,100)	(51,5)	(27,1)	(0,1)	(2,2)	(45,0)	(20,3)	(25,2)	(5,22)	(18,0)	(24,0)	(19,0)	(17,0)	(4,0)	
L2C -44>	(0,0)	(2,1)	(48,0)	(11,1)	(1,145)	(43,15)	(13,0)	(-1,43)	(20,0)	(4,0)	(3,0)	(8,1)	(10,1)	(37,2)	(45,10)	(57,0)	
L2C -43>	(-2,146)	(42,12)	(1,134)	(25,7)	(-1,4)	(41,3)	(0,106)	(56,2)	(28,2)	(40,30)	(-5,1)	(2,2)	(37,2)	(3,1)	(8,1)	(18,1)	
L2C -42>	(1,210)	(56,40)	(32,1)	(43,9)	(48,91)	(-1,85)	(10,2)	(5,2)	(45,42)	(42,4)	(6,1)	(12,2)	(9,1)	(4,1)	(-4,6)	(-6,1)	
L2C -41>	(43,9)	(1,199)	(25,9)	(-1,19)	(35,6)	(8,1)	(19,7)	(3,1)	(56,1)	(11,1)	(2,3)	(-2,1)	(45,1)	(-4,2)	(10,1)	(42,3)	
L2C -40>	(1,163)	(3,1)	(-1,8)	(2,13)	(35,6)	(8,1)	(4,2)	(45,1)	(41,24)	(20,7)	(6,2)	(-4,2)	(-6,2)	(24,1)	(43,1)	(-22,1)	
L2C -39>	(1,65)	(2,34)	(0,4)	(40,4)	(32,1)	(5,1)	(10,3)	(8,1)	(27,1)	(9,1)	(13,1)	(21,2)	(4,1)	(34,62)	(3,1)	(7,1)	
L2C -38>	(1,157)	(13,26)	(37,1)	(0,1)	(39,2)	(2,5)	(8,1)	(35,53)	(19,18)	(12,1)	(42,1)	(-3,3)	(4,2)	(-1,3)	(-25,2)	(-5,1)	
L2C -37>	(29,34)	(39,4)	(24,7)	(2,6)	(-1,25)	(1,78)	(34,7)	(47,8)	(10,1)	(5,3)	(-11,8)	(27,1)	(26,2)	(37,1)	(4,1)	(-2,48)	
L2C -36>	(1,208)	(2,1)	(34,1)	(-10,4)	(19,2)	(-2,2)	(35,1)	(4,1)	(11,2)	(-25,1)	(9,2)	(13,0)	(-1,1)	(-21,0)	(24,56)	(12,0)	
L2C -35>	(1,212)	(-9,8)	(3,2)	(53,2)	(16,1)	(26,1)	(-2,63)	(10,2)	(8,0)	(9,0)	(-1,33)	(32,0)	(36,1)	(28,0)	(2,2)	(7,0)	
L2C -34>	(1,74)	(-2,25)	(-1,94)	(37,106)	(-10,10)	(35,22)	(34,41)	(27,5)	(2,33)	(-3,95)	(8,2)	(10,6)	(13,79)	(6,1)	(3,2)	(24,13)	
L2C -33>	(1,164)	(30,1)	(27,0)	(-1,1)	(8,0)	(14,1)	(29,0)	(2,1)	(10,0)	(28,4)	(-2,0)	(0,0)	(3,1)	(32,0)	(25,4)	(34,3)	
L2C -32>	(-7,10)	(1,122)	(2,64)	(-1,9)	(3,2)	(33,2)	(23,2)	(13,4)	(25,2)	(53,6)	(-19,65)	(32,6)	(28,1)	(20,2)	(5,1)	(27,16)	
L2C -31>	(22,2)	(24,186)	(1,127)	(-2,3)	(4,2)	(33,1)	(2,6)	(25,1)	(-1,4)	(14,3)	(19,1)	(28,64)	(-7,1)	(27,1)	(21,1)	(0,2)	
L2C -30>	(1,143)	(31,7)	(-1,9)	(34,25)	(4,4)	(28,2)	(27,5)	(-3,1)	(12,2)	(22,1)	(30,3)	(2,27)	(10,0)	(53,0)	(32,0)	(14,1)	
L2C -29>	(3,13)	(38,6)	(1,160)	(29,55)	(31,2)	(24,0)	(-1,0)	(39,0)	(37,1)	(36,0)	(-2,0)	(2,1)	(-4,0)	(-5,0)	(53,28)	(40,0)	
L2C -28>	(29,66)	(-2,96)	(-4,2)	(1,216)	(6,2)	(-1,1)	(21,28)	(-12,1)	(-5,5)	(27,51)	(-9,1)	(24,5)	(0,2)	(13,1)	(25,1)	(2,3)	
L2C -27>	(1,227)	(-4,1)	(-1,13)	(-9,43)	(3,1)	(6,1)	(13,5)	(22,39)	(5,1)	(9,2)	(23,2)	(2,31)	(14,1)	(10,1)	(28,24)	(0,1)	
L2C -26>	(2,19)	(23,1)	(21,1)	(37,106)	(1,135)	(-15,14)	(-9,83)	(0,24)	(26,106)	(-1,7)	(4,1)	(-2,29)	(22,1)	(-30,0)	(27,66)	(3,1)	
L2C -25>	(-1,2)	(-7,1)	(1,147)	(2,4)	(15,0)	(-5,1)	(20,0)	(4,1)	(3,1)	(25,0)	(-2,0)	(-23,0)	(21,15)	(16,0)	(5,0)	(6,0)	
L2C -24>	(1,225)	(-9,1)	(-33,3)	(62,2)	(3,47)	(-1,75)	(-8,10)	(-27,3)	(26,52)	(2,40)	(22,46)	(-11,1)	(13,4)	(21,5)	(25,4)	(0,1)	
L2C -23>	(3,1)	(1,220)	(-1,1)	(13,2)	(22,4)	(-2,16)	(16,1)	(45,1)	(4,1)	(-4,1)	(2,15)	(-8,1)	(17,1)	(32,2)	(8,0)	(18,0)	
L2C -22>	(13,30)	(1,153)	(2,1)	(17,4)	(0,1)	(-1,15)	(-3,1)	(20,0)	(53,20)	(14,35)	(21,1)	(23,1)	(41,5)	(18,30)	(-2,1)	(4,4)	
L2C -21>	(13,24)	(1,137)	(21,140)	(3,2)	(33,1)	(-1,29)	(4,1)	(7,2)	(17,24)	(5,2)	(22,1)	(14,2)	(16,0)	(19,0)	(9,1)	(32,1)	
L2C -20>	(1,203)	(21,3)	(-1,33)	(0,1)	(11,1)	(14,0)	(-13,4)	(4,0)	(22,25)	(3,0)	(13,1)	(-5,0)	(2,1)	(-8,1)	(17,16)	(-3,0)	
L2C -19>	(16,12)	(1,213)	(-27,13)	(15,80)	(-2,27)	(-1,143)	(14,9)	(17,44)	(13,16)	(9,3)	(-5,1)	(-43,1)	(12,23)	(21,1)	(2,10)	(-14,28)	
L2C -18>	(1,199)	(-1,8)	(-2,1)	(14,7)	(4,1)	(13,8)	(-15,24)	(9,1)	(21,0)	(2,20)	(17,4)	(-5,0)	(25,0)	(19,2)	(27,1)	(3,0)	
L2C -17>	(1,211)	(15,7)	(-1,45)	(8,24)	(-3,1)	(42,1)	(4,4)	(0,26)	(26,4)	(14,2)	(41,21)	(2,3)	(16,1)	(17,2)	(-2,1)	(6,11)	
L2C -16>	(1,219)	(15,9)	(-2,7)	(41,13)	(11,2)	(18,2)	(-1,76)	(17,42)	(14,96)	(3,1)	(13,35)	(25,5)	(0,79)	(62,2)	(4,30)	(2,34)	
L2C -15>	(14,6)	(1,208)	(18,1)	(0,14)	(4,3)	(3,16)	(-9,0)	(10,1)	(-10,9)	(-1,2)	(-3,0)	(15,10)	(13,1)	(16,3)	(-45,0)	(-11,0)	
L2C -14>	(24,4)	(1,255)	(0,55)	(2,55)	(5,1)	(-27,1)	(9,27)	(16,26)	(14,241)	(-1,87)	(15,38)	(13,116)	(-3,1)	(4,6)	(10,16)	(8,1)	
L2C -13>	(1,206)	(12,30)	(14,54)	(-2,14)	(2,4)	(0,1)	(34,3)	(13,76)	(28,0)	(21,0)	(5,2)	(-35,0)	(-1,60)	(4,5)	(-26,1)	(17,0)	
L2C -12>	(-4,2)	(1,207)	(8,7)	(10,7)	(-6,3)	(2,9)	(13,5)	(-11,3)	(3,9)	(-1,11)	(-5,1)	(0,1)	(4,1)	(7,1)	(-29,1)	(-3,1)	
L2C -11>	(2,16)	(9,15)	(3,10)	(0,2)	(1,151)	(-3,12)	(11,1)	(8,7)	(12,9)	(4,1)	(6,1)	(-8,10)	(-2,14)	(-1,8)	(5,6)	(-5,1)	
L2C -10>	(0,2)	(5,4)	(4,1)	(11,0)	(3,6)	(1,139)	(-42,3)	(-2,8)	(7,1)	(8,2)	(-11,4)	(-1,13)	(25,2)	(-3,0)	(9,5)	(2,20)	
L2C -9>	(1,146)	(3,5)	(-9,2)	(0,15)	(-18,1)	(8,2)	(-1,20)	(2,2)	(28,2)	(33,4)	(4,3)	(-26,2)	(40,1)	(-8,2)	(-2,1)	(10,3)	
L2C -8>	(3,5)	(1,218)	(13,1)	(-2,0)	(-7,0)	(10,3)	(-19,1)	(0,21)	(-1,36)	(4,4)	(2,6)	(17,4)	(-16,0)	(9,8)	(14,1)	(-18,0)	
L2C -7>	(1,198)	(10,9)	(14,9)	(3,1)	(8,4)	(2,5)	(0,4)	(-4,3)	(5,2)	(-1,86)	(-2,29)	(-5,1)	(-7,5)	(-3,10)	(13,6)	(9,1)	
L2C -6>	(40,9)	(6,18)	(1,237)	(2,29)	(3,12)	(14,17)	(7,8)	(13,15)	(-3,14)	(5,3)	(49,9)	(-1,93)	(0,9)	(-2,23)	(15,2)	(4,4)	
L2C -5>	(1,198)	(43,10)	(6,3)	(3,17)	(2,41)	(4,39)	(13,7)	(-3,4)	(5,26)	(51,8)	(-2,2)	(0,19)	(-1,30)	(-4,11)	(-16,14)	(-42,2)	
L2C -4>	(1,165)	(5,11)	(-2,5)	(2,10)	(3,29)	(-11,7)	(51,0)	(4,15)	(10,7)	(17,7)	(-31,1)	(-1,73)	(-5,0)	(13,5)	(6,0)	(-14,0)	
L2C -3>	(6,1)	(1,151)	(-1,23)	(-4,2)	(3,10)	(-33,3)	(7,1)	(-28,1)	(-55,2)	(-2,2)	(5,1)	(4,7)	(-31,0)	(-5,0)	(2,31)	(24,2)	
L2C -2>	(25,1)	(5,1)	(2,10)	(21,1)	(-15,1)	(-9,1)	(1,129)	(-4,3)	(-52,1)	(3,27)	(-1,24)	(4,2)	(-2,2)	(26,0)	(-10,1)	(-34,1)	
L2C -1>	(7,1)	(-24,1)	(4,4)	(3,11)	(-4,3)	(2,44)	(1,141)	(5,1)	(-31,1)	(15,2)	(0,5)	(-1,32)	(-13,1)	(14,2)	(-14,2)	(-2,11)	
L2C 0>	(1,27)	(-1,15)	(0,233)	(3,0)	(44,1)	(62,1)	(-13,1)	(-4,1)	(-3,1)	(-2,7)	(14,1)	(52,0)	(-17,0)	(2,1)	(13,2)	(5,0)	
L2C 1>	(1,159)	(3,4)	(-3,5)	(26,1)	(2,6)	(-4,1)	(0,1)	(-19,1)	(-60,1)	(-10,1)	(11,2)	(-2,11)	(18,1)	(-1,10)	(-6,2)	(-5,2)	
L2C 2>	(-63,1)	(1,144)	(2,3)	(43,1)	(-1,61)	(-4,2)	(-3,11)	(0,6)	(-9,3)	(10,1)	(-34,1)	(-10,1)	(-2,9)	(4,1)	(11,3)	(13,1)	
L2C 3>	(-63,1)	(17,4)	(2,8)	(1,199)	(-1,33)	(-3,8)	(-2,33)	(0,3)	(-20,4)	(3,4)	(-42,3)	(-4,9)	(36,3)	(-17,3)	(4,4)	(-5,1)	
L2C 4>	(1,179)	(13,7)	(-9,2)	(6,3)	(3,2)	(-3,20)	(-12,1)	(-4,14)	(-1,40)	(-5,2)	(-18,9)	(-7,9)	(2,2)	(-8,1)	(-2,11)	(-6,10)	
L2C 5>	(1,129)	(3,1)	(-12,1)	(-4,4)	(-1,57)	(2,1)	(-2,3)	(16,0)	(-6,11)	(-26,0)	(-5,42)	(5,0)	(4,0)	(-9,0)	(-13,0)	(-14,3)	
L2C 6>	(1,163)	(-1,31)	(-5,3)	(3,1)	(-4,12)	(-30,21)	(-15,19)	(0,9)	(-7,1)	(-8,11)	(-14,32)	(9,1)	(-6,2)	(-3,0)	(2,2)	(4,1)	
L2C 7>	(1,130)	(-8,1)	(-9,14)	(10,2)	(-6,24)	(-7,3)	(-3,17)	(3,3)	(-15,1)	(-4,1)	(-10,0)	(2,4)	(24,0)	(6,1)	(9,0)	(-1,3)	
L2C 8>	(-7,21)	(2,9)	(0,28)	(1,190)	(-2,3)	(-4,6)	(3,5)	(-8,7)	(-26,4)	(-13,15)	(-37,2)	(-1,2)	(-12,5)	(-6,1)	(-14,22)	(33,1)	
L2C 9>	(1,175)	(-14,17)	(-15,19)	(-10,4)	(-3,2)	(-6,23)	(2,28)	(5,8)	(-59,3)	(-1,34)	(11,1)	(-23,21)	(-4,9)	(3,1)	(-8,34)	(-51,2)	
L2C 10>	(-8,27)	(31,25)	(0,26)	(1,188)	(-1,30)	(-7,21)	(-12,2)	(16,5)	(-9,12)	(-14,3)	(5,13)	(-35,27)	(27,1)	(4,2)	(2,5)	(-2,2)	
L2C 11>	(1,234)	(11,7)	(18,34)	(-9,3)	(-34,26)	(5,3)	(3,5)	(-14,22)	(-11,1)	(-1,10)	(-57,47)	(-28,37)	(2,18)	(-10,7)	(-5,10)	(27,1)	
L2C 12>	(1,249)	(5,5)	(13,5)	(9,12)	(-22,2)	(-4,2)	(-1,9)	(-11,60)	(2,9)	(3,26)	(11,2)	(-10,59)	(-9,1)	(-8,2)	(-56,1)	(-14,2)	
L2C 13>	(-12,13)	(1,190)	(-15,16)	(0,19)	(-13,13)	(-56,11)	(-43,2)	(-26,11)	(8,1)	(-20,3)	(-2,10)	(-5,9)	(-14,42)	(5,12)	(20,13)	(2,12)	
L2C 14>	(-6,9)	(-20,1)	(-45,32)	(1,212)	(0,12)	(-8,3)	(-13,62)	(-35,32)	(2,13)	(-17,72)	(-15,71)	(-14,191)	(-16,24)	(-12,32)	(-2,1)	(-1,12)	
L2C 15>	(1,141)	(-13,9)	(3,68)	(-36,30)	(2,31)	(-11,1)	(-56,0)	(11,11)	(-12,1)	(-1,36)	(-14,44)	(-6,1)	(-19,4)	(-15,10)	(-21,0)	(-38,1)	
L2C 16>	(1,172)	(-14,38)	(15,15)	(-30,8)	(-15,87)	(-7,23)	(-12,1)	(-1,73)	(3,38)	(4,2)	(-8,2)	(-27,13)	(-22,1)	(2,1)	(13,1)	(-3,1)	
L2C 17>	(1,208)	(4,22)	(-16,78)	(-15,3)	(2,16)	(-30,20)	(-1,84)	(-8,3)	(9,48)	(-12,1)	(-49,37)	(0,2)	(3,1)	(13,29)	(-2,1)	(-17,2)	
L2C 18>	(-19,4)	(1,196)	(9,33)	(7,2)	(3,3)	(-22,7)	(-14,2)	(-1,5)	(-12,1)	(-15,1)	(2,6)	(-21,1)	(15,69)	(4,4)	(-17,100)	(5,2)	
L2C 19>	(2,2)	(1,234)	(13,91)	(6,2)	(-3,2)	(-1,39)	(-20,2)	(4,4)	(-39,3)	(15,3)	(-16,2)	(14,28)	(-18,13)	(-24,2)	(5,2)	(-12,15)	
L2C 20>	(1,122)	(4,54)	(-21,5)	(-1,9)	(-10,96)	(2,10)	(-23,1)	(-13,3)	(13,3)	(-19,8)	(-3,2)	(-39,9)	(-6,3)	(-11,3)	(-14,3)	(-26,6)	
L2C 21>	(-21,54)	(1,141)	(4,6)	(-1,3)	(0,1)	(-38,1)	(-11,28)	(-3,3)	(15,7)	(8,1)	(-23,0)	(-20,0)	(-39,0)	(14,4)	(-2,11)	(-18,1)	
L2C 22>	(1,138)	(-23,97)	(2,6)	(-13,13)	(-1,9)	(14,9)	(-40,30)	(-24,7)	(-21,117)	(-12,3)	(16,3)	(-5,4)	(13,8)	(8,1)	(-27,8)	(4,4)	
L2C 23>	(5,13)	(-8,2)	(-1,78)	(-16,1)	(-31,1)	(1,70)	(-24,1)	(2,3)	(-27,1)	(12,1)	(-38,4)	(-9,1)	(-26,2)	(-19,1)	(-4,1)	(-11,3)	
L2C 24>	(1,176)	(-50,5)	(9,143)	(-26,197)	(-49,2)	(14,37)	(-24,48)	(-23,19)	(-48,3)	(-34,1)	(-25,3)	(-1,57)	(4,2)	(-32,33)	(5,2)	(-51,3)	
L2C 25>	(1,198)	(-22,2)	(14,6)	(4,38)	(-1,14)	(13,4)	(2,56)	(18,4)	(-21,4)	(-26,3)	(-4,2)	(9,5)	(6,14)	(-20,2)	(-41,1)	(-24,21)	
L2C 26>	(-27,21)	(-26,214)	(12,3)	(1,43)	(-4,76)	(-35,1)	(-1,33)	(-10,33)	(-25,7)	(-57,3)	(14,1)	(0,2)	(9,2)	(-7,1)	(-16,1)	(-11,2)	
L2C 27>	(-26,2)	(1,215)	(-3,1)	(-37,0)	(-1,6)	(-10,1)	(2,0)	(-33,2)	(-2,7)	(-22,16)	(0,1)	(-23,19)	(-19,0)	(-11,1)	(10,0)	(1,0)	
L2C 28>	(-1,156)	(1,91)	(-34,3)	(-36,3)	(-21,4)	(-35,28)	(-10,66)	(-27,4)	(-22,3)	(-4,4)	(-33,13)	(0,8)	(7,5)	(13,88)	(8,56)	(-28,3)	
L2C 29>	(-29,128)	(-28,210)	(-32,1)	(-33,7)	(2,3)	(-18,1)	(-1,5)	(-17,3)	(-36,3)	(-35,1)	(-34,2)	(14,42)	(4,76)	(3,2)	(1,32)	(-30,6)	
L2C 30>	(1,122)	(-29,139)	(5,1)	(-35,44)	(14,4)	(-45,50)	(-36,16)	(3,0)	(-38,29)	(0,29)	(-13,0)	(2,30)	(-33,1)	(-10,0)	(-23,0)	(6,0)	
L2C 31>	(1,204)	(-36,1)	(2,2)	(-31,1)	(-15,1)	(-29,8)	(-34,2)	(-35,8)	(14,1)	(-11,33)	(-30,3)	(-22,1)	(-13,1)	(-32,64)	(-9,3)	(-23,1)	
L2C 32>	(4,2)	(-1,25)	(-29,1)	(14,2)	(1,50)	(2,3)	(-12,13)	(-33,1)	(-31,3)	(-41,1)	(-2,1)	(-32,2)	(1,0)	(1,0)	(1,0)	(1,0)	
L2C 33>	(1,250)	(2,1)	(-35,1)	(-43,1)	(4,1)	(10,1)	(-33,1)	(-31,8)	(-1,27)	(0,2)	(-32,2)	(-23,1)	(-22,0)	(-9,0)	(1,0)	(1,0)	
L2C 34>	(4,147)	(6,2)	(1,218)	(-4,2)	(2,5)	(-34,104)	(-1,12)	(-2,10)	(5,1)	(-10,1)	(-3,93)	(-33,1)	(-35,5)	(0,27)	(-36,1)	(-20,2)	
L2C 35>	(1,148)	(-36,19)	(-32,4)	(-51,1)	(-7,12)	(-13,4)	(0,18)	(-2,8)	(-1,12)	(-9,1)	(-44,1)	(-15,1)	(4,17)	(-34,4)	(-17,1)	(2,1)	
L2C 36>	(1,50)	(6,1)	(4,9)	(-2,41)	(-4,1)	(-1,6)	(-34,2)	(-3,1)	(-41,1)	(2,1)	(-43,1)	(0,1)	(-60,1)	(1,0)	(1,0)	(1,0)	
L2C 37>	(-44,27)	(-26,136)	(-27,1)	(1,73)	(-38,24)	(-4,2)	(-13,0)	(6,1)	(-37,0)	(4,47)	(2,31)	(-11,1)	(-1,3)	(10,2)	(-43,8)	(0,3)	
L2C 38>	(-43,4)	(1,236)	(-1,50)	(2,3)	(14,1)	(-13,1)	(0,2)	(-6,1)	(-33,1)	(-44,1)	(-25,1)	(1,0)	(1,0)	(1,0)	(1,0)	(1,0)	
L2C 39>	(-38,2)	(1,244)	(-37,2)	(-29,1)	(-25,1)	(-39,1)	(-46,1)	(-2,1)	(2,1)	(-1,3)	(4,19)	(-11,1)	(-34,1)	(-15,1)	(-44,3)	(-43,1)	
L2C 40>	(1,112)	(5,134)	(4,1)	(-29,18)	(-43,7)	(-36,57)	(8,20)	(-1,3)	(-30,2)	(-37,1)	(2,1)	(-13,1)	(-11,2)	(-47,1)	(3,0)	(-20,1)	
L2C 41>	(3,1)	(-45,1)	(2,6)	(1,45)	(-44,9)	(0,2)	(-1,1)	(-46,2)	(4,31)	(-4,3)	(1,0)	(1,0)	(1,0)	(1,0)	(1,0)	(1,0)	
L2C 42>	(-44,126)	(1,108)	(-1,46)	(2,1)	(-43,95)	(3,6)	(-46,2)	(-41,3)	(-21,2)	(-40,2)	(-2,27)	(-24,1)	(-32,1)	(1,0)	(1,0)	(1,0)	
L2C 43>	(1,166)	(14,10)	(-42,146)	(-43,1)	(-48,2)	(-46,1)	(4,7)	(-45,9)	(-44,95)	(-1,98)	(-35,1)	(-3,1)	(-2,2)	(1,0)	(1,0)	(1,0)	
L2C 44>	(-32,0)	(1,184)	(-51,0)	(2,3)	(-43,4)	(-27,0)	(-16,0)	(-48,0)	(-1,1)	(-44,0)	(0,0)	(1,0)	(1,0)	(1,0)	(1,0)	(1,0)	
L2C 45>	(-50,14)	(1,57)	(-63,34)	(-3,1)	(-42,1)	(-43,10)	(-31,5)	(-5,1)	(-29,1)	(-44,3)	(-62,76)	(-2,2)	(-46,5)	(-34,1)	(1,0)	(1,0)	
L2C 46>	(2,6)	(-4,97)	(-31,2)	(-56,12)	(1,28)	(-51,33)	(-53,1)	(-29,1)	(3,2)	(-34,1)	(8,1)	(-46,1)	(-1,1)	(-48,1)	(1,0)	(1,0)	
L2C 47>	(-56,104)	(1,18)	(-51,66)	(2,2)	(-46,1)	(-52,44)	(-53,19)	(-50,48)	(-3,1)	(1,0)	(1,0)	(1,0)	(1,0)	(1,0)	(1,0)	(1,0)	
L2C 48>	(1,222)	(-48,4)	(-31,2)	(6,101)	(0,6)	(-49,1)	(-46,1)	(-26,1)	(-1,1)	(2,1)	(1,0)	(1,0)	(1,0)	(1,0)	(1,0)	(1,0)	
L2C 49>	(3,1)	(-31,1)	(-55,49)	(-51,2)	(-50,80)	(-48,1)	(-47,1)	(1,0)	(1,0)	(1,0)	(1,0)	(1,0)	(1,0)	(1,0)	(1,0)	(1,0)	
L2C 50>	(-55,2)	(6,6)	(-51,2)	(1,6)	(-52,1)	(-28,5)	(-32,1)	(-6,1)	(-1,1)	(1,0)	(1,0)	(1,0)	(1,0)	(1,0)	(1,0)	(1,0)	
L2C 51>	(1,2)	(2,7)	(-53,1)	(-56,4)	(-22,3)	(-26,2)	(-35,10)	(-59,1)	(1,0)	(1,0)	(1,0)	(1,0)	(1,0)	(1,0)	(1,0)	(1,0)	
L2C 52>	(1,30)	(-51,39)	(-53,2)	(-35,14)	(0,1)	(1,0)	(1,0)	(1,0)	(1,0)	(1,0)	(1,0)	(1,0)	(1,0)	(1,0)	(1,0)	(1,0)	
L2C 53>	(1,8)	(-26,81)	(-28,3)	(-31,1)	(-52,77)	(2,1)	(1,0)	(1,0)	(1,0)	(1,0)	(1,0)	(1,0)	(1,0)	(1,0)	(1,0)	(1,0)	
L2C 54>	(-59,1)	(-55,59)	(1,36)	(-53,3)	(-30,3)	(1,0)	(1,0)	(1,0)	(1,0)	(1,0)	(1,0)	(1,0)	(1,0)	(1,0)	(1,0)	(1,0)	
L2C 55>	(1,9)	(-55,25)	(0,12)	(-56,89)	(-1,1)	(8,1)	(-28,2)	(1,0)	(1,0)	(1,0)	(1,0)	(1,0)	(1,0)	(1,0)	(1,0)	(1,0)	
L2C 56>	(1,46)	(-46,21)	(-22,79)	(-28,30)	(1,0)	(1,0)	(1,0)	(1,0)	(1,0)	(1,0)	(1,0)	(1,0)	(1,0)	(1,0)	(1,0)	(1,0)	
L2C 57>	(-55,1)	(-35,76)	(1,46)	(-2,1)	(-12,1)	(-59,1)	(1,0)	(1,0)	(1,0)	(1,0)	(1,0)	(1,0)	(1,0)	(1,0)	(1,0)	(1,0)	
L2C 58>	(-1,1)	(-28,3)	(-59,2)	(1,4)	(1,0)	(1,0)	(1,0)	(1,0)	(1,0)	(1,0)	(1,0)	(1,0)	(1,0)	(1,0)	(1,0)	(1,0)	
L2C 59>	(1,1)	(-59,2)	(-58,1)	(-1,1)	(1,0)	(1,0)	(1,0)	(1,0)	(1,0)	(1,0)	(1,0)	(1,0)	(1,0)	(1,0)	(1,0)	(1,0)	
L2C 60>	(-28,1)	(1,1)	(1,0)	(1,0)	(1,0)	(1,0)	(1,0)	(1,0)	(1,0)	(1,0)	(1,0)	(1,0)	(1,0)	(1,0)	(1,0)	(1,0)	
L2C 61>	(1,16)	(-1,1)	(1,0)	(1,0)	(1,0)	(1,0)	(1,0)	(1,0)	(1,0)	(1,0)	(1,0)	(1,0)	(1,0)	(1,0)	(1,0)	(1,0)	
L2C 62>	(-43,16)	(-12,1)	(-63,1)	(1,0)	(1,0)	(1,0)	(1,0)	(1,0)	(1,0)	(1,0)	(1,0)	(1,0)	(1,0)	(1,0)	(1,0)	(1,0)	
L2C 63>	(-28,1)	(1,0)	(1,0)	(1,0)	(1,0)	(1,0)	(1,0)	(1,0)	(1,0)	(1,0)	(1,0)	(1,0)	(1,0)	(1,0)	(1,0)	(1,0)	

DRAM Statistics
 CHANNEL 0
 RQ ROW_BUFFER_HIT:      24290  ROW_BUFFER_MISS:      33070
 DBUS_CONGESTED:      44474
 WQ ROW_BUFFER_HIT:       1448  ROW_BUFFER_MISS:      10666  FULL:          0

 AVG_CONGESTED_CYCLE: 6
