
*** ChampSim Multicore Out-of-Order Simulator ***

Warmup Instructions: 1000000
Simulation Instructions: 10000000
Number of CPUs: 1
LLC sets: 2048
LLC ways: 16
Off-chip DRAM Size: 4096 MB Channels: 1 Width: 64-bit Data Rate: 3200 MT/s

CPU 0 runs /home/virtualcse/Data-Prefetching/ChampSim/dpc3_traces/627.cam4_s-573B.champsimtrace.xz
Ultra pref. initializing...
Ultra pref. initialized
Ultra pref. initializing...
Ultra pref. initialized

Warmup complete CPU 0 instructions: 1000004 cycles: 310959 (Simulation time: 0 hr 0 min 1 sec) 

Heartbeat CPU 0 instructions: 10000003 cycles: 6902694 heartbeat IPC: 1.44871 cumulative IPC: 1.36535 (Simulation time: 0 hr 0 min 13 sec) 
Finished CPU 0 instructions: 10000001 cycles: 7075267 cumulative IPC: 1.41337 (Simulation time: 0 hr 0 min 15 sec) 

CPU 0 Branch Prediction Accuracy: 98.6664% MPKI: 1.8031 Average ROB Occupancy at Mispredict: 102.164

ChampSim completed all CPUs

Region of Interest Statistics

CPU 0 cumulative IPC: 1.41337 instructions: 10000001 cycles: 7075267
L1D TOTAL     ACCESS:    3051445  HIT:    2940304  MISS:     111141
L1D LOAD      ACCESS:     907395  HIT:     899505  MISS:       7890
L1D RFO       ACCESS:     663643  HIT:     581812  MISS:      81831
L1D PREFETCH  ACCESS:    1480407  HIT:    1458987  MISS:      21420
L1D WRITEBACK ACCESS:          0  HIT:          0  MISS:          0
L1D PREFETCH  REQUESTED:   15931208  ISSUED:   11131775  USEFUL:      12814  USELESS:       8277
L1D AVERAGE MISS LATENCY: 437.658 cycles
L1I TOTAL     ACCESS:     663744  HIT:     660915  MISS:       2829
L1I LOAD      ACCESS:     663744  HIT:     660915  MISS:       2829
L1I RFO       ACCESS:          0  HIT:          0  MISS:          0
L1I PREFETCH  ACCESS:          0  HIT:          0  MISS:          0
L1I WRITEBACK ACCESS:          0  HIT:          0  MISS:          0
L1I PREFETCH  REQUESTED:          0  ISSUED:          0  USEFUL:          0  USELESS:          0
L1I AVERAGE MISS LATENCY: 39.5804 cycles
L2C TOTAL     ACCESS:     348955  HIT:     260200  MISS:      88755
L2C LOAD      ACCESS:      10034  HIT:       8459  MISS:       1575
L2C RFO       ACCESS:      81813  HIT:       8493  MISS:      73320
L2C PREFETCH  ACCESS:     172309  HIT:     158476  MISS:      13833
L2C WRITEBACK ACCESS:      84799  HIT:      84772  MISS:         27
L2C PREFETCH  REQUESTED:     410385  ISSUED:     274083  USEFUL:       3607  USELESS:       5752
L2C AVERAGE MISS LATENCY: 564.81 cycles
LLC TOTAL     ACCESS:     169341  HIT:      91035  MISS:      78306
LLC LOAD      ACCESS:       1395  HIT:        677  MISS:        718
LLC RFO       ACCESS:      73308  HIT:       4059  MISS:      69249
LLC PREFETCH  ACCESS:      14025  HIT:       5686  MISS:       8339
LLC WRITEBACK ACCESS:      80613  HIT:      80613  MISS:          0
LLC PREFETCH  REQUESTED:          0  ISSUED:          0  USEFUL:        285  USELESS:         59
LLC AVERAGE MISS LATENCY: 603.39 cycles
Major fault: 0 Minor fault: 2274

L1D -512>	(2,29)	(6,4)	(60,1)	(7,2)	(106,3)	(0,36)	(200,12)	(4,11)	(1,51)	(3,10)	(-8,7)	(5,4)	(-4,5)	(-200,120)	(20,32)	(8,9)	
L1D -511>	(3,1)	(2,3)	(1,7)	(4,3)	(1,0)	(1,0)	(1,0)	(1,0)	(1,0)	(1,0)	(1,0)	(1,0)	(1,0)	(1,0)	(1,0)	(1,0)	
L1D -510>	(2,4)	(3,3)	(1,6)	(4,4)	(1,0)	(1,0)	(1,0)	(1,0)	(1,0)	(1,0)	(1,0)	(1,0)	(1,0)	(1,0)	(1,0)	(1,0)	
L1D -509>	(8,1)	(4,2)	(2,2)	(1,1)	(1,0)	(1,0)	(1,0)	(1,0)	(1,0)	(1,0)	(1,0)	(1,0)	(1,0)	(1,0)	(1,0)	(1,0)	
L1D -508>	(8,1)	(1,4)	(4,2)	(2,3)	(1,0)	(1,0)	(1,0)	(1,0)	(1,0)	(1,0)	(1,0)	(1,0)	(1,0)	(1,0)	(1,0)	(1,0)	
L1D -507>	(4,1)	(1,0)	(1,0)	(1,0)	(1,0)	(1,0)	(1,0)	(1,0)	(1,0)	(1,0)	(1,0)	(1,0)	(1,0)	(1,0)	(1,0)	(1,0)	
L1D -506>	(2,2)	(4,1)	(8,1)	(-3,1)	(1,0)	(1,0)	(1,0)	(1,0)	(1,0)	(1,0)	(1,0)	(1,0)	(1,0)	(1,0)	(1,0)	(1,0)	
L1D -505>	(4,1)	(8,1)	(1,0)	(1,0)	(1,0)	(1,0)	(1,0)	(1,0)	(1,0)	(1,0)	(1,0)	(1,0)	(1,0)	(1,0)	(1,0)	(1,0)	
L1D -504>	(1,0)	(1,0)	(1,0)	(1,0)	(1,0)	(1,0)	(1,0)	(1,0)	(1,0)	(1,0)	(1,0)	(1,0)	(1,0)	(1,0)	(1,0)	(1,0)	
L1D -503>	(4,1)	(1,0)	(1,0)	(1,0)	(1,0)	(1,0)	(1,0)	(1,0)	(1,0)	(1,0)	(1,0)	(1,0)	(1,0)	(1,0)	(1,0)	(1,0)	
L1D -502>	(6,1)	(502,1)	(442,1)	(1,0)	(1,0)	(1,0)	(1,0)	(1,0)	(1,0)	(1,0)	(1,0)	(1,0)	(1,0)	(1,0)	(1,0)	(1,0)	
L1D -501>	(1,0)	(1,0)	(1,0)	(1,0)	(1,0)	(1,0)	(1,0)	(1,0)	(1,0)	(1,0)	(1,0)	(1,0)	(1,0)	(1,0)	(1,0)	(1,0)	
L1D -500>	(4,1)	(500,1)	(1,0)	(1,0)	(1,0)	(1,0)	(1,0)	(1,0)	(1,0)	(1,0)	(1,0)	(1,0)	(1,0)	(1,0)	(1,0)	(1,0)	
L1D -499>	(499,1)	(500,1)	(1,0)	(1,0)	(1,0)	(1,0)	(1,0)	(1,0)	(1,0)	(1,0)	(1,0)	(1,0)	(1,0)	(1,0)	(1,0)	(1,0)	
L1D -498>	(499,2)	(1,0)	(1,0)	(1,0)	(1,0)	(1,0)	(1,0)	(1,0)	(1,0)	(1,0)	(1,0)	(1,0)	(1,0)	(1,0)	(1,0)	(1,0)	
L1D -497>	(498,3)	(1,0)	(1,0)	(1,0)	(1,0)	(1,0)	(1,0)	(1,0)	(1,0)	(1,0)	(1,0)	(1,0)	(1,0)	(1,0)	(1,0)	(1,0)	
L1D -496>	(202,1)	(497,3)	(496,1)	(1,0)	(1,0)	(1,0)	(1,0)	(1,0)	(1,0)	(1,0)	(1,0)	(1,0)	(1,0)	(1,0)	(1,0)	(1,0)	
L1D -495>	(496,2)	(493,1)	(1,0)	(1,0)	(1,0)	(1,0)	(1,0)	(1,0)	(1,0)	(1,0)	(1,0)	(1,0)	(1,0)	(1,0)	(1,0)	(1,0)	
L1D -494>	(495,3)	(494,1)	(1,0)	(1,0)	(1,0)	(1,0)	(1,0)	(1,0)	(1,0)	(1,0)	(1,0)	(1,0)	(1,0)	(1,0)	(1,0)	(1,0)	
L1D -493>	(494,2)	(493,2)	(1,1)	(1,0)	(1,0)	(1,0)	(1,0)	(1,0)	(1,0)	(1,0)	(1,0)	(1,0)	(1,0)	(1,0)	(1,0)	(1,0)	
L1D -492>	(493,1)	(1,0)	(1,0)	(1,0)	(1,0)	(1,0)	(1,0)	(1,0)	(1,0)	(1,0)	(1,0)	(1,0)	(1,0)	(1,0)	(1,0)	(1,0)	
L1D -491>	(1,29)	(418,5)	(352,4)	(492,3)	(1,0)	(1,0)	(1,0)	(1,0)	(1,0)	(1,0)	(1,0)	(1,0)	(1,0)	(1,0)	(1,0)	(1,0)	
L1D -490>	(1,10)	(418,3)	(491,3)	(490,1)	(1,0)	(1,0)	(1,0)	(1,0)	(1,0)	(1,0)	(1,0)	(1,0)	(1,0)	(1,0)	(1,0)	(1,0)	
L1D -489>	(202,1)	(490,2)	(1,0)	(1,0)	(1,0)	(1,0)	(1,0)	(1,0)	(1,0)	(1,0)	(1,0)	(1,0)	(1,0)	(1,0)	(1,0)	(1,0)	
L1D -488>	(290,1)	(3,1)	(2,1)	(202,1)	(489,3)	(1,0)	(1,0)	(1,0)	(1,0)	(1,0)	(1,0)	(1,0)	(1,0)	(1,0)	(1,0)	(1,0)	
L1D -487>	(488,1)	(2,2)	(1,1)	(1,0)	(1,0)	(1,0)	(1,0)	(1,0)	(1,0)	(1,0)	(1,0)	(1,0)	(1,0)	(1,0)	(1,0)	(1,0)	
L1D -486>	(487,1)	(1,0)	(1,0)	(1,0)	(1,0)	(1,0)	(1,0)	(1,0)	(1,0)	(1,0)	(1,0)	(1,0)	(1,0)	(1,0)	(1,0)	(1,0)	
L1D -485>	(202,1)	(8,1)	(2,1)	(1,0)	(1,0)	(1,0)	(1,0)	(1,0)	(1,0)	(1,0)	(1,0)	(1,0)	(1,0)	(1,0)	(1,0)	(1,0)	
L1D -484>	(3,1)	(1,1)	(1,0)	(1,0)	(1,0)	(1,0)	(1,0)	(1,0)	(1,0)	(1,0)	(1,0)	(1,0)	(1,0)	(1,0)	(1,0)	(1,0)	
L1D -483>	(1,0)	(1,0)	(1,0)	(1,0)	(1,0)	(1,0)	(1,0)	(1,0)	(1,0)	(1,0)	(1,0)	(1,0)	(1,0)	(1,0)	(1,0)	(1,0)	
L1D -482>	(486,1)	(1,1)	(2,1)	(1,0)	(1,0)	(1,0)	(1,0)	(1,0)	(1,0)	(1,0)	(1,0)	(1,0)	(1,0)	(1,0)	(1,0)	(1,0)	
L1D -481>	(202,1)	(480,1)	(481,1)	(1,0)	(1,0)	(1,0)	(1,0)	(1,0)	(1,0)	(1,0)	(1,0)	(1,0)	(1,0)	(1,0)	(1,0)	(1,0)	
L1D -480>	(3,1)	(0,2)	(1,1)	(2,4)	(1,0)	(1,0)	(1,0)	(1,0)	(1,0)	(1,0)	(1,0)	(1,0)	(1,0)	(1,0)	(1,0)	(1,0)	
L1D -479>	(1,1)	(8,2)	(1,0)	(1,0)	(1,0)	(1,0)	(1,0)	(1,0)	(1,0)	(1,0)	(1,0)	(1,0)	(1,0)	(1,0)	(1,0)	(1,0)	
L1D -478>	(478,1)	(482,1)	(1,1)	(1,0)	(1,0)	(1,0)	(1,0)	(1,0)	(1,0)	(1,0)	(1,0)	(1,0)	(1,0)	(1,0)	(1,0)	(1,0)	
L1D -477>	(202,1)	(-1,1)	(8,1)	(48,1)	(1,0)	(1,0)	(1,0)	(1,0)	(1,0)	(1,0)	(1,0)	(1,0)	(1,0)	(1,0)	(1,0)	(1,0)	
L1D -476>	(478,2)	(0,1)	(2,1)	(1,2)	(48,1)	(479,1)	(1,0)	(1,0)	(1,0)	(1,0)	(1,0)	(1,0)	(1,0)	(1,0)	(1,0)	(1,0)	
L1D -475>	(1,0)	(1,0)	(1,0)	(1,0)	(1,0)	(1,0)	(1,0)	(1,0)	(1,0)	(1,0)	(1,0)	(1,0)	(1,0)	(1,0)	(1,0)	(1,0)	
L1D -474>	(2,2)	(38,3)	(1,6)	(475,1)	(37,1)	(1,0)	(1,0)	(1,0)	(1,0)	(1,0)	(1,0)	(1,0)	(1,0)	(1,0)	(1,0)	(1,0)	
L1D -473>	(1,0)	(1,0)	(1,0)	(1,0)	(1,0)	(1,0)	(1,0)	(1,0)	(1,0)	(1,0)	(1,0)	(1,0)	(1,0)	(1,0)	(1,0)	(1,0)	
L1D -472>	(470,1)	(474,2)	(2,2)	(3,1)	(202,3)	(1,0)	(1,0)	(1,0)	(1,0)	(1,0)	(1,0)	(1,0)	(1,0)	(1,0)	(1,0)	(1,0)	
L1D -471>	(1,2)	(470,1)	(1,0)	(1,0)	(1,0)	(1,0)	(1,0)	(1,0)	(1,0)	(1,0)	(1,0)	(1,0)	(1,0)	(1,0)	(1,0)	(1,0)	
L1D -470>	(0,1)	(470,1)	(474,1)	(1,0)	(1,0)	(1,0)	(1,0)	(1,0)	(1,0)	(1,0)	(1,0)	(1,0)	(1,0)	(1,0)	(1,0)	(1,0)	
L1D -469>	(202,1)	(1,0)	(1,0)	(1,0)	(1,0)	(1,0)	(1,0)	(1,0)	(1,0)	(1,0)	(1,0)	(1,0)	(1,0)	(1,0)	(1,0)	(1,0)	
L1D -468>	(3,2)	(1,2)	(470,1)	(202,1)	(1,0)	(1,0)	(1,0)	(1,0)	(1,0)	(1,0)	(1,0)	(1,0)	(1,0)	(1,0)	(1,0)	(1,0)	
L1D -467>	(1,0)	(1,0)	(1,0)	(1,0)	(1,0)	(1,0)	(1,0)	(1,0)	(1,0)	(1,0)	(1,0)	(1,0)	(1,0)	(1,0)	(1,0)	(1,0)	
L1D -466>	(1,1)	(470,3)	(3,2)	(214,1)	(1,0)	(1,0)	(1,0)	(1,0)	(1,0)	(1,0)	(1,0)	(1,0)	(1,0)	(1,0)	(1,0)	(1,0)	
L1D -465>	(202,2)	(1,0)	(1,0)	(1,0)	(1,0)	(1,0)	(1,0)	(1,0)	(1,0)	(1,0)	(1,0)	(1,0)	(1,0)	(1,0)	(1,0)	(1,0)	
L1D -464>	(3,1)	(466,3)	(0,3)	(2,1)	(202,2)	(1,0)	(1,0)	(1,0)	(1,0)	(1,0)	(1,0)	(1,0)	(1,0)	(1,0)	(1,0)	(1,0)	
L1D -463>	(202,1)	(1,1)	(-1,1)	(432,1)	(1,0)	(1,0)	(1,0)	(1,0)	(1,0)	(1,0)	(1,0)	(1,0)	(1,0)	(1,0)	(1,0)	(1,0)	
L1D -462>	(2,1)	(466,3)	(3,1)	(0,1)	(393,1)	(404,1)	(1,0)	(1,0)	(1,0)	(1,0)	(1,0)	(1,0)	(1,0)	(1,0)	(1,0)	(1,0)	
L1D -461>	(202,6)	(1,0)	(1,0)	(1,0)	(1,0)	(1,0)	(1,0)	(1,0)	(1,0)	(1,0)	(1,0)	(1,0)	(1,0)	(1,0)	(1,0)	(1,0)	
L1D -460>	(3,2)	(462,2)	(458,2)	(1,1)	(202,2)	(4,1)	(1,0)	(1,0)	(1,0)	(1,0)	(1,0)	(1,0)	(1,0)	(1,0)	(1,0)	(1,0)	
L1D -459>	(160,1)	(440,1)	(1,0)	(1,0)	(1,0)	(1,0)	(1,0)	(1,0)	(1,0)	(1,0)	(1,0)	(1,0)	(1,0)	(1,0)	(1,0)	(1,0)	
L1D -458>	(3,2)	(462,2)	(1,1)	(2,1)	(1,0)	(1,0)	(1,0)	(1,0)	(1,0)	(1,0)	(1,0)	(1,0)	(1,0)	(1,0)	(1,0)	(1,0)	
L1D -457>	(202,3)	(97,1)	(1,0)	(1,0)	(1,0)	(1,0)	(1,0)	(1,0)	(1,0)	(1,0)	(1,0)	(1,0)	(1,0)	(1,0)	(1,0)	(1,0)	
L1D -456>	(3,2)	(458,5)	(2,1)	(0,1)	(1,1)	(202,1)	(1,0)	(1,0)	(1,0)	(1,0)	(1,0)	(1,0)	(1,0)	(1,0)	(1,0)	(1,0)	
L1D -455>	(1,3)	(1,0)	(1,0)	(1,0)	(1,0)	(1,0)	(1,0)	(1,0)	(1,0)	(1,0)	(1,0)	(1,0)	(1,0)	(1,0)	(1,0)	(1,0)	
L1D -454>	(0,1)	(3,1)	(458,3)	(2,2)	(1,1)	(452,1)	(1,0)	(1,0)	(1,0)	(1,0)	(1,0)	(1,0)	(1,0)	(1,0)	(1,0)	(1,0)	
L1D -453>	(202,5)	(93,1)	(1,0)	(1,0)	(1,0)	(1,0)	(1,0)	(1,0)	(1,0)	(1,0)	(1,0)	(1,0)	(1,0)	(1,0)	(1,0)	(1,0)	
L1D -452>	(450,2)	(3,1)	(454,3)	(0,1)	(2,1)	(1,1)	(1,0)	(1,0)	(1,0)	(1,0)	(1,0)	(1,0)	(1,0)	(1,0)	(1,0)	(1,0)	
L1D -451>	(300,1)	(1,0)	(1,0)	(1,0)	(1,0)	(1,0)	(1,0)	(1,0)	(1,0)	(1,0)	(1,0)	(1,0)	(1,0)	(1,0)	(1,0)	(1,0)	
L1D -450>	(3,3)	(454,3)	(0,2)	(2,1)	(130,1)	(1,2)	(156,1)	(1,0)	(1,0)	(1,0)	(1,0)	(1,0)	(1,0)	(1,0)	(1,0)	(1,0)	
L1D -449>	(202,3)	(8,1)	(1,0)	(1,0)	(1,0)	(1,0)	(1,0)	(1,0)	(1,0)	(1,0)	(1,0)	(1,0)	(1,0)	(1,0)	(1,0)	(1,0)	
L1D -448>	(3,3)	(450,6)	(2,2)	(446,1)	(1,1)	(438,1)	(1,0)	(1,0)	(1,0)	(1,0)	(1,0)	(1,0)	(1,0)	(1,0)	(1,0)	(1,0)	
L1D -447>	(1,0)	(1,0)	(1,0)	(1,0)	(1,0)	(1,0)	(1,0)	(1,0)	(1,0)	(1,0)	(1,0)	(1,0)	(1,0)	(1,0)	(1,0)	(1,0)	
L1D -446>	(2,3)	(450,2)	(0,1)	(3,1)	(432,1)	(302,1)	(1,0)	(1,0)	(1,0)	(1,0)	(1,0)	(1,0)	(1,0)	(1,0)	(1,0)	(1,0)	
L1D -445>	(202,5)	(1,1)	(427,1)	(1,0)	(1,0)	(1,0)	(1,0)	(1,0)	(1,0)	(1,0)	(1,0)	(1,0)	(1,0)	(1,0)	(1,0)	(1,0)	
L1D -444>	(0,1)	(446,5)	(442,1)	(2,2)	(3,1)	(1,1)	(8,1)	(428,1)	(1,0)	(1,0)	(1,0)	(1,0)	(1,0)	(1,0)	(1,0)	(1,0)	
L1D -443>	(1,0)	(1,0)	(1,0)	(1,0)	(1,0)	(1,0)	(1,0)	(1,0)	(1,0)	(1,0)	(1,0)	(1,0)	(1,0)	(1,0)	(1,0)	(1,0)	
L1D -442>	(3,4)	(446,5)	(1,2)	(202,1)	(106,1)	(287,1)	(1,0)	(1,0)	(1,0)	(1,0)	(1,0)	(1,0)	(1,0)	(1,0)	(1,0)	(1,0)	
L1D -441>	(202,2)	(445,1)	(1,0)	(1,0)	(1,0)	(1,0)	(1,0)	(1,0)	(1,0)	(1,0)	(1,0)	(1,0)	(1,0)	(1,0)	(1,0)	(1,0)	
L1D -440>	(2,3)	(442,5)	(0,2)	(1,4)	(3,2)	(202,4)	(410,1)	(289,1)	(1,0)	(1,0)	(1,0)	(1,0)	(1,0)	(1,0)	(1,0)	(1,0)	
L1D -439>	(1,1)	(3,1)	(110,1)	(137,1)	(1,0)	(1,0)	(1,0)	(1,0)	(1,0)	(1,0)	(1,0)	(1,0)	(1,0)	(1,0)	(1,0)	(1,0)	
L1D -438>	(2,3)	(1,2)	(442,3)	(3,2)	(0,1)	(408,2)	(357,1)	(406,1)	(404,1)	(126,1)	(136,5)	(139,1)	(1,0)	(1,0)	(1,0)	(1,0)	
L1D -437>	(202,6)	(1,0)	(1,0)	(1,0)	(1,0)	(1,0)	(1,0)	(1,0)	(1,0)	(1,0)	(1,0)	(1,0)	(1,0)	(1,0)	(1,0)	(1,0)	
L1D -436>	(2,3)	(438,7)	(3,2)	(434,1)	(0,1)	(202,2)	(1,1)	(136,2)	(1,0)	(1,0)	(1,0)	(1,0)	(1,0)	(1,0)	(1,0)	(1,0)	
L1D -435>	(1,0)	(1,0)	(1,0)	(1,0)	(1,0)	(1,0)	(1,0)	(1,0)	(1,0)	(1,0)	(1,0)	(1,0)	(1,0)	(1,0)	(1,0)	(1,0)	
L1D -434>	(3,4)	(438,5)	(434,2)	(202,1)	(2,1)	(396,1)	(1,0)	(1,0)	(1,0)	(1,0)	(1,0)	(1,0)	(1,0)	(1,0)	(1,0)	(1,0)	
L1D -433>	(202,3)	(1,5)	(405,1)	(1,0)	(1,0)	(1,0)	(1,0)	(1,0)	(1,0)	(1,0)	(1,0)	(1,0)	(1,0)	(1,0)	(1,0)	(1,0)	
L1D -432>	(3,3)	(434,7)	(1,2)	(202,1)	(0,2)	(2,1)	(1,0)	(1,0)	(1,0)	(1,0)	(1,0)	(1,0)	(1,0)	(1,0)	(1,0)	(1,0)	
L1D -431>	(202,1)	(280,6)	(1,3)	(1,0)	(1,0)	(1,0)	(1,0)	(1,0)	(1,0)	(1,0)	(1,0)	(1,0)	(1,0)	(1,0)	(1,0)	(1,0)	
L1D -430>	(3,3)	(434,6)	(1,3)	(430,1)	(2,2)	(280,10)	(1,0)	(1,0)	(1,0)	(1,0)	(1,0)	(1,0)	(1,0)	(1,0)	(1,0)	(1,0)	
L1D -429>	(202,3)	(372,1)	(0,1)	(432,1)	(435,1)	(-1,1)	(1,0)	(1,0)	(1,0)	(1,0)	(1,0)	(1,0)	(1,0)	(1,0)	(1,0)	(1,0)	
L1D -428>	(0,3)	(430,7)	(202,3)	(2,5)	(426,1)	(1,1)	(372,1)	(1,0)	(1,0)	(1,0)	(1,0)	(1,0)	(1,0)	(1,0)	(1,0)	(1,0)	
L1D -427>	(218,2)	(1,1)	(1,0)	(1,0)	(1,0)	(1,0)	(1,0)	(1,0)	(1,0)	(1,0)	(1,0)	(1,0)	(1,0)	(1,0)	(1,0)	(1,0)	
L1D -426>	(430,5)	(3,2)	(0,2)	(2,2)	(1,2)	(218,16)	(426,1)	(1,0)	(1,0)	(1,0)	(1,0)	(1,0)	(1,0)	(1,0)	(1,0)	(1,0)	
L1D -425>	(202,6)	(1,1)	(397,1)	(1,0)	(1,0)	(1,0)	(1,0)	(1,0)	(1,0)	(1,0)	(1,0)	(1,0)	(1,0)	(1,0)	(1,0)	(1,0)	
L1D -424>	(202,1)	(3,4)	(0,2)	(1,2)	(426,5)	(422,1)	(2,2)	(318,1)	(368,1)	(182,1)	(1,0)	(1,0)	(1,0)	(1,0)	(1,0)	(1,0)	
L1D -423>	(200,1)	(212,1)	(318,17)	(1,3)	(1,0)	(1,0)	(1,0)	(1,0)	(1,0)	(1,0)	(1,0)	(1,0)	(1,0)	(1,0)	(1,0)	(1,0)	
L1D -422>	(1,104)	(3,3)	(426,6)	(422,1)	(0,3)	(318,1)	(418,23)	(384,13)	(423,4)	(417,1)	(136,1)	(94,1)	(-63,1)	(424,1)	(87,1)	(1,0)	
L1D -421>	(202,4)	(436,1)	(1,2)	(1,0)	(1,0)	(1,0)	(1,0)	(1,0)	(1,0)	(1,0)	(1,0)	(1,0)	(1,0)	(1,0)	(1,0)	(1,0)	
L1D -420>	(422,9)	(2,3)	(418,1)	(202,3)	(3,1)	(1,4)	(0,1)	(1,0)	(1,0)	(1,0)	(1,0)	(1,0)	(1,0)	(1,0)	(1,0)	(1,0)	
L1D -419>	(8,1)	(1,0)	(1,0)	(1,0)	(1,0)	(1,0)	(1,0)	(1,0)	(1,0)	(1,0)	(1,0)	(1,0)	(1,0)	(1,0)	(1,0)	(1,0)	
L1D -418>	(0,3)	(3,1)	(2,4)	(422,4)	(1,2)	(418,1)	(274,1)	(70,1)	(1,0)	(1,0)	(1,0)	(1,0)	(1,0)	(1,0)	(1,0)	(1,0)	
L1D -417>	(202,4)	(2,1)	(338,1)	(-1,1)	(1,0)	(1,0)	(1,0)	(1,0)	(1,0)	(1,0)	(1,0)	(1,0)	(1,0)	(1,0)	(1,0)	(1,0)	
L1D -416>	(202,4)	(414,1)	(3,3)	(418,7)	(0,3)	(1,3)	(2,1)	(416,1)	(358,1)	(363,1)	(1,0)	(1,0)	(1,0)	(1,0)	(1,0)	(1,0)	
L1D -415>	(2,2)	(376,2)	(-33,1)	(1,0)	(1,0)	(1,0)	(1,0)	(1,0)	(1,0)	(1,0)	(1,0)	(1,0)	(1,0)	(1,0)	(1,0)	(1,0)	
L1D -414>	(0,4)	(418,7)	(414,1)	(2,3)	(3,1)	(328,1)	(226,1)	(412,1)	(1,0)	(1,0)	(1,0)	(1,0)	(1,0)	(1,0)	(1,0)	(1,0)	
L1D -413>	(202,6)	(352,1)	(1,1)	(413,1)	(1,0)	(1,0)	(1,0)	(1,0)	(1,0)	(1,0)	(1,0)	(1,0)	(1,0)	(1,0)	(1,0)	(1,0)	
L1D -412>	(414,8)	(0,2)	(2,4)	(3,1)	(202,1)	(4,1)	(1,1)	(1,0)	(1,0)	(1,0)	(1,0)	(1,0)	(1,0)	(1,0)	(1,0)	(1,0)	
L1D -411>	(376,2)	(417,1)	(1,0)	(1,0)	(1,0)	(1,0)	(1,0)	(1,0)	(1,0)	(1,0)	(1,0)	(1,0)	(1,0)	(1,0)	(1,0)	(1,0)	
L1D -410>	(2,3)	(414,4)	(1,2)	(0,4)	(3,3)	(410,1)	(376,5)	(294,1)	(1,0)	(1,0)	(1,0)	(1,0)	(1,0)	(1,0)	(1,0)	(1,0)	
L1D -409>	(202,6)	(0,1)	(430,1)	(1,0)	(1,0)	(1,0)	(1,0)	(1,0)	(1,0)	(1,0)	(1,0)	(1,0)	(1,0)	(1,0)	(1,0)	(1,0)	
L1D -408>	(0,5)	(410,8)	(202,4)	(3,3)	(2,2)	(406,1)	(377,1)	(408,1)	(1,0)	(1,0)	(1,0)	(1,0)	(1,0)	(1,0)	(1,0)	(1,0)	
L1D -407>	(2,1)	(181,1)	(1,0)	(1,0)	(1,0)	(1,0)	(1,0)	(1,0)	(1,0)	(1,0)	(1,0)	(1,0)	(1,0)	(1,0)	(1,0)	(1,0)	
L1D -406>	(202,2)	(0,3)	(3,3)	(406,2)	(410,4)	(2,2)	(1,0)	(1,0)	(1,0)	(1,0)	(1,0)	(1,0)	(1,0)	(1,0)	(1,0)	(1,0)	
L1D -405>	(2,3)	(202,5)	(1,23)	(270,8)	(272,6)	(404,2)	(1,0)	(1,0)	(1,0)	(1,0)	(1,0)	(1,0)	(1,0)	(1,0)	(1,0)	(1,0)	
L1D -404>	(2,2)	(406,7)	(3,3)	(1,13)	(402,1)	(270,21)	(400,1)	(272,22)	(404,1)	(-1,1)	(85,1)	(1,0)	(1,0)	(1,0)	(1,0)	(1,0)	
L1D -403>	(2,26)	(3,65)	(1,11)	(200,94)	(261,1)	(1,0)	(1,0)	(1,0)	(1,0)	(1,0)	(1,0)	(1,0)	(1,0)	(1,0)	(1,0)	(1,0)	
L1D -402>	(2,112)	(1,17)	(406,6)	(3,59)	(402,1)	(200,52)	(289,1)	(-93,4)	(1,0)	(1,0)	(1,0)	(1,0)	(1,0)	(1,0)	(1,0)	(1,0)	
L1D -401>	(202,6)	(200,9)	(2,3)	(1,4)	(198,1)	(3,5)	(268,5)	(241,1)	(400,1)	(1,0)	(1,0)	(1,0)	(1,0)	(1,0)	(1,0)	(1,0)	
L1D -400>	(202,2)	(2,21)	(402,11)	(3,32)	(398,1)	(0,3)	(1,12)	(198,9)	(200,57)	(268,24)	(400,4)	(72,1)	(1,0)	(1,0)	(1,0)	(1,0)	
L1D -399>	(202,1)	(2,47)	(8,1)	(1,26)	(200,62)	(3,24)	(-1,1)	(1,0)	(1,0)	(1,0)	(1,0)	(1,0)	(1,0)	(1,0)	(1,0)	(1,0)	
L1D -398>	(398,2)	(402,5)	(202,2)	(2,29)	(3,45)	(1,13)	(0,1)	(200,77)	(1,0)	(1,0)	(1,0)	(1,0)	(1,0)	(1,0)	(1,0)	(1,0)	
L1D -397>	(202,9)	(8,1)	(1,7)	(200,6)	(2,11)	(3,2)	(108,1)	(1,0)	(1,0)	(1,0)	(1,0)	(1,0)	(1,0)	(1,0)	(1,0)	(1,0)	
L1D -396>	(4,11)	(8,5)	(201,1)	(3,17)	(2,65)	(26,1)	(134,1)	(200,91)	(1,36)	(1,0)	(1,0)	(1,0)	(1,0)	(1,0)	(1,0)	(1,0)	
L1D -395>	(200,20)	(4,3)	(198,1)	(1,0)	(1,0)	(1,0)	(1,0)	(1,0)	(1,0)	(1,0)	(1,0)	(1,0)	(1,0)	(1,0)	(1,0)	(1,0)	
L1D -394>	(3,3)	(398,6)	(1,3)	(2,5)	(0,2)	(4,1)	(198,6)	(328,1)	(395,1)	(441,1)	(270,1)	(1,0)	(1,0)	(1,0)	(1,0)	(1,0)	
L1D -393>	(202,5)	(1,0)	(1,0)	(1,0)	(1,0)	(1,0)	(1,0)	(1,0)	(1,0)	(1,0)	(1,0)	(1,0)	(1,0)	(1,0)	(1,0)	(1,0)	
L1D -392>	(202,2)	(0,3)	(394,11)	(2,3)	(390,1)	(3,4)	(4,5)	(8,13)	(5,1)	(-22,1)	(44,1)	(384,1)	(1,0)	(1,0)	(1,0)	(1,0)	
L1D -391>	(6,1)	(-21,3)	(1,1)	(2,1)	(244,1)	(390,1)	(1,0)	(1,0)	(1,0)	(1,0)	(1,0)	(1,0)	(1,0)	(1,0)	(1,0)	(1,0)	
L1D -390>	(3,6)	(394,6)	(0,1)	(202,1)	(1,7)	(8,1)	(6,1)	(222,1)	(391,1)	(390,3)	(1,0)	(1,0)	(1,0)	(1,0)	(1,0)	(1,0)	
L1D -389>	(202,12)	(3,1)	(388,1)	(276,1)	(-1,1)	(1,0)	(1,0)	(1,0)	(1,0)	(1,0)	(1,0)	(1,0)	(1,0)	(1,0)	(1,0)	(1,0)	
L1D -388>	(4,21)	(202,3)	(3,5)	(390,10)	(1,2)	(0,2)	(388,4)	(389,1)	(391,1)	(300,1)	(255,1)	(1,0)	(1,0)	(1,0)	(1,0)	(1,0)	
L1D -387>	(-1,1)	(237,1)	(1,0)	(1,0)	(1,0)	(1,0)	(1,0)	(1,0)	(1,0)	(1,0)	(1,0)	(1,0)	(1,0)	(1,0)	(1,0)	(1,0)	
L1D -386>	(202,1)	(1,5)	(3,5)	(390,6)	(4,1)	(386,1)	(2,1)	(0,1)	(1,0)	(1,0)	(1,0)	(1,0)	(1,0)	(1,0)	(1,0)	(1,0)	
L1D -385>	(202,6)	(330,1)	(1,0)	(1,0)	(1,0)	(1,0)	(1,0)	(1,0)	(1,0)	(1,0)	(1,0)	(1,0)	(1,0)	(1,0)	(1,0)	(1,0)	
L1D -384>	(202,6)	(2,2)	(386,13)	(382,1)	(3,4)	(0,2)	(4,2)	(76,1)	(1,6)	(67,1)	(1,0)	(1,0)	(1,0)	(1,0)	(1,0)	(1,0)	
L1D -383>	(202,1)	(8,1)	(1,5)	(369,1)	(1,0)	(1,0)	(1,0)	(1,0)	(1,0)	(1,0)	(1,0)	(1,0)	(1,0)	(1,0)	(1,0)	(1,0)	
L1D -382>	(3,4)	(424,1)	(202,3)	(2,3)	(386,2)	(1,3)	(382,1)	(0,2)	(276,1)	(11,7)	(189,1)	(-18,1)	(377,1)	(1,0)	(1,0)	(1,0)	
L1D -381>	(202,5)	(380,1)	(381,1)	(1,0)	(1,0)	(1,0)	(1,0)	(1,0)	(1,0)	(1,0)	(1,0)	(1,0)	(1,0)	(1,0)	(1,0)	(1,0)	
L1D -380>	(202,6)	(3,3)	(382,10)	(0,3)	(378,2)	(2,2)	(8,2)	(72,1)	(408,1)	(1,4)	(380,2)	(381,2)	(-1,1)	(1,0)	(1,0)	(1,0)	
L1D -379>	(202,1)	(1,4)	(385,1)	(247,1)	(1,0)	(1,0)	(1,0)	(1,0)	(1,0)	(1,0)	(1,0)	(1,0)	(1,0)	(1,0)	(1,0)	(1,0)	
L1D -378>	(202,5)	(0,4)	(382,5)	(3,2)	(2,2)	(1,6)	(378,2)	(319,1)	(379,2)	(41,1)	(377,1)	(70,1)	(1,0)	(1,0)	(1,0)	(1,0)	
L1D -377>	(202,6)	(1,2)	(214,1)	(52,1)	(377,1)	(1,0)	(1,0)	(1,0)	(1,0)	(1,0)	(1,0)	(1,0)	(1,0)	(1,0)	(1,0)	(1,0)	
L1D -376>	(202,3)	(378,10)	(0,3)	(2,3)	(3,1)	(374,1)	(1,108)	(4,3)	(8,6)	(364,35)	(287,1)	(408,1)	(370,1)	(390,1)	(212,1)	(1,0)	
L1D -375>	(374,2)	(1,1)	(363,1)	(1,0)	(1,0)	(1,0)	(1,0)	(1,0)	(1,0)	(1,0)	(1,0)	(1,0)	(1,0)	(1,0)	(1,0)	(1,0)	
L1D -374>	(1,3)	(0,3)	(2,3)	(378,4)	(3,2)	(376,1)	(472,1)	(202,1)	(374,3)	(-1,2)	(138,1)	(1,0)	(1,0)	(1,0)	(1,0)	(1,0)	
L1D -373>	(202,6)	(2,1)	(8,1)	(-1,1)	(1,0)	(1,0)	(1,0)	(1,0)	(1,0)	(1,0)	(1,0)	(1,0)	(1,0)	(1,0)	(1,0)	(1,0)	
L1D -372>	(202,5)	(370,1)	(2,5)	(374,7)	(0,7)	(3,1)	(4,3)	(1,2)	(-14,1)	(1,0)	(1,0)	(1,0)	(1,0)	(1,0)	(1,0)	(1,0)	
L1D -371>	(202,2)	(2,2)	(0,34)	(6,1)	(260,1)	(1,0)	(1,0)	(1,0)	(1,0)	(1,0)	(1,0)	(1,0)	(1,0)	(1,0)	(1,0)	(1,0)	
L1D -370>	(202,2)	(2,6)	(0,70)	(370,1)	(374,4)	(24,1)	(244,1)	(400,1)	(371,1)	(1,0)	(1,0)	(1,0)	(1,0)	(1,0)	(1,0)	(1,0)	
L1D -369>	(202,7)	(2,1)	(4,1)	(422,1)	(1,0)	(1,0)	(1,0)	(1,0)	(1,0)	(1,0)	(1,0)	(1,0)	(1,0)	(1,0)	(1,0)	(1,0)	
L1D -368>	(2,2)	(370,9)	(3,4)	(1,1)	(0,2)	(202,3)	(8,2)	(4,1)	(368,1)	(1,0)	(1,0)	(1,0)	(1,0)	(1,0)	(1,0)	(1,0)	
L1D -367>	(202,1)	(1,54)	(8,1)	(3,2)	(17,1)	(366,2)	(319,1)	(1,0)	(1,0)	(1,0)	(1,0)	(1,0)	(1,0)	(1,0)	(1,0)	(1,0)	
L1D -366>	(1,40)	(370,5)	(2,3)	(3,2)	(202,2)	(0,1)	(287,1)	(-8,1)	(367,1)	(366,2)	(1,0)	(1,0)	(1,0)	(1,0)	(1,0)	(1,0)	
L1D -365>	(202,8)	(364,1)	(365,37)	(-1,13)	(341,1)	(1,0)	(1,0)	(1,0)	(1,0)	(1,0)	(1,0)	(1,0)	(1,0)	(1,0)	(1,0)	(1,0)	
L1D -364>	(3,1)	(366,8)	(362,1)	(202,3)	(2,4)	(1,7)	(0,2)	(8,2)	(4,2)	(364,2)	(-1,1)	(318,1)	(1,0)	(1,0)	(1,0)	(1,0)	
L1D -363>	(502,1)	(1,1)	(8,1)	(1,0)	(1,0)	(1,0)	(1,0)	(1,0)	(1,0)	(1,0)	(1,0)	(1,0)	(1,0)	(1,0)	(1,0)	(1,0)	
L1D -362>	(202,6)	(362,1)	(366,5)	(2,3)	(3,4)	(0,2)	(270,1)	(-1,1)	(1,0)	(1,0)	(1,0)	(1,0)	(1,0)	(1,0)	(1,0)	(1,0)	
L1D -361>	(202,12)	(1,1)	(1,0)	(1,0)	(1,0)	(1,0)	(1,0)	(1,0)	(1,0)	(1,0)	(1,0)	(1,0)	(1,0)	(1,0)	(1,0)	(1,0)	
L1D -360>	(202,3)	(1,2)	(362,8)	(3,3)	(0,3)	(2,3)	(358,1)	(1,0)	(1,0)	(1,0)	(1,0)	(1,0)	(1,0)	(1,0)	(1,0)	(1,0)	
L1D -359>	(8,1)	(400,1)	(1,2)	(428,1)	(1,0)	(1,0)	(1,0)	(1,0)	(1,0)	(1,0)	(1,0)	(1,0)	(1,0)	(1,0)	(1,0)	(1,0)	
L1D -358>	(3,3)	(362,7)	(1,5)	(202,1)	(2,4)	(400,45)	(416,1)	(240,1)	(430,1)	(358,1)	(1,0)	(1,0)	(1,0)	(1,0)	(1,0)	(1,0)	
L1D -357>	(202,8)	(356,1)	(1,1)	(1,0)	(1,0)	(1,0)	(1,0)	(1,0)	(1,0)	(1,0)	(1,0)	(1,0)	(1,0)	(1,0)	(1,0)	(1,0)	
L1D -356>	(202,7)	(2,4)	(358,11)	(3,2)	(0,2)	(354,1)	(8,3)	(4,1)	(1,1)	(-66,1)	(1,0)	(1,0)	(1,0)	(1,0)	(1,0)	(1,0)	
L1D -355>	(202,1)	(1,1)	(-1,2)	(1,0)	(1,0)	(1,0)	(1,0)	(1,0)	(1,0)	(1,0)	(1,0)	(1,0)	(1,0)	(1,0)	(1,0)	(1,0)	
L1D -354>	(202,4)	(3,5)	(358,7)	(0,1)	(2,2)	(354,5)	(1,5)	(170,1)	(355,1)	(230,1)	(122,1)	(1,0)	(1,0)	(1,0)	(1,0)	(1,0)	
L1D -353>	(202,6)	(1,5)	(352,1)	(353,1)	(-1,3)	(0,1)	(1,0)	(1,0)	(1,0)	(1,0)	(1,0)	(1,0)	(1,0)	(1,0)	(1,0)	(1,0)	
L1D -352>	(202,6)	(3,4)	(354,10)	(1,18)	(0,4)	(4,3)	(8,4)	(353,19)	(167,7)	(148,7)	(168,5)	(147,9)	(352,3)	(-1,1)	(1,0)	(1,0)	
L1D -351>	(202,2)	(1,7)	(352,1)	(351,4)	(350,7)	(-1,1)	(347,1)	(1,0)	(1,0)	(1,0)	(1,0)	(1,0)	(1,0)	(1,0)	(1,0)	(1,0)	
L1D -350>	(202,3)	(3,4)	(354,6)	(350,13)	(308,1)	(352,1)	(2,2)	(1,17)	(351,20)	(259,10)	(212,7)	(260,8)	(211,8)	(310,1)	(86,1)	(-1,1)	
L1D -349>	(202,6)	(-1,10)	(1,0)	(1,0)	(1,0)	(1,0)	(1,0)	(1,0)	(1,0)	(1,0)	(1,0)	(1,0)	(1,0)	(1,0)	(1,0)	(1,0)	
L1D -348>	(202,4)	(3,4)	(350,9)	(2,2)	(346,1)	(0,1)	(4,1)	(6,1)	(352,1)	(347,1)	(1,0)	(1,0)	(1,0)	(1,0)	(1,0)	(1,0)	
L1D -347>	(353,1)	(346,1)	(347,1)	(1,0)	(1,0)	(1,0)	(1,0)	(1,0)	(1,0)	(1,0)	(1,0)	(1,0)	(1,0)	(1,0)	(1,0)	(1,0)	
L1D -346>	(3,4)	(350,4)	(2,4)	(1,5)	(202,1)	(0,1)	(267,1)	(347,1)	(346,2)	(-1,1)	(213,1)	(1,0)	(1,0)	(1,0)	(1,0)	(1,0)	
L1D -345>	(202,5)	(1,3)	(4,1)	(345,1)	(-1,2)	(173,1)	(344,1)	(1,0)	(1,0)	(1,0)	(1,0)	(1,0)	(1,0)	(1,0)	(1,0)	(1,0)	
L1D -344>	(202,7)	(3,4)	(346,11)	(0,4)	(2,2)	(8,3)	(4,10)	(1,32)	(345,4)	(344,5)	(86,1)	(-1,1)	(1,0)	(1,0)	(1,0)	(1,0)	
L1D -343>	(1,13)	(3,1)	(343,2)	(342,1)	(-1,5)	(140,1)	(100,1)	(1,0)	(1,0)	(1,0)	(1,0)	(1,0)	(1,0)	(1,0)	(1,0)	(1,0)	
L1D -342>	(202,3)	(3,4)	(346,5)	(388,1)	(0,1)	(2,2)	(342,7)	(1,19)	(343,3)	(-1,2)	(331,1)	(1,0)	(1,0)	(1,0)	(1,0)	(1,0)	
L1D -341>	(202,10)	(2,2)	(1,21)	(284,1)	(341,3)	(340,1)	(-1,3)	(1,0)	(1,0)	(1,0)	(1,0)	(1,0)	(1,0)	(1,0)	(1,0)	(1,0)	
L1D -340>	(202,2)	(342,9)	(2,4)	(0,3)	(3,2)	(4,2)	(8,1)	(1,48)	(324,14)	(341,2)	(340,8)	(-88,1)	(305,1)	(110,1)	(391,1)	(1,0)	
L1D -339>	(202,1)	(339,1)	(-1,9)	(0,1)	(1,0)	(1,0)	(1,0)	(1,0)	(1,0)	(1,0)	(1,0)	(1,0)	(1,0)	(1,0)	(1,0)	(1,0)	
L1D -338>	(202,5)	(2,4)	(342,4)	(3,3)	(0,3)	(272,2)	(1,2)	(339,1)	(338,1)	(447,1)	(138,1)	(189,1)	(1,0)	(1,0)	(1,0)	(1,0)	
L1D -337>	(202,8)	(217,1)	(-1,4)	(82,1)	(1,1)	(1,0)	(1,0)	(1,0)	(1,0)	(1,0)	(1,0)	(1,0)	(1,0)	(1,0)	(1,0)	(1,0)	
L1D -336>	(202,5)	(3,5)	(338,7)	(334,1)	(0,2)	(1,5)	(2,1)	(8,1)	(336,1)	(24,1)	(1,0)	(1,0)	(1,0)	(1,0)	(1,0)	(1,0)	
L1D -335>	(1,1)	(202,1)	(268,1)	(1,0)	(1,0)	(1,0)	(1,0)	(1,0)	(1,0)	(1,0)	(1,0)	(1,0)	(1,0)	(1,0)	(1,0)	(1,0)	
L1D -334>	(2,4)	(338,6)	(202,3)	(334,2)	(0,2)	(1,2)	(3,1)	(-1,1)	(1,0)	(1,0)	(1,0)	(1,0)	(1,0)	(1,0)	(1,0)	(1,0)	
L1D -333>	(202,9)	(8,1)	(-1,1)	(1,0)	(1,0)	(1,0)	(1,0)	(1,0)	(1,0)	(1,0)	(1,0)	(1,0)	(1,0)	(1,0)	(1,0)	(1,0)	
L1D -332>	(202,6)	(3,3)	(334,9)	(1,8)	(2,3)	(0,1)	(4,1)	(8,1)	(185,1)	(252,1)	(1,0)	(1,0)	(1,0)	(1,0)	(1,0)	(1,0)	
L1D -331>	(202,1)	(1,102)	(3,6)	(2,4)	(328,2)	(329,1)	(270,1)	(1,0)	(1,0)	(1,0)	(1,0)	(1,0)	(1,0)	(1,0)	(1,0)	(1,0)	
L1D -330>	(1,57)	(334,5)	(2,5)	(0,2)	(3,3)	(330,3)	(328,26)	(288,18)	(329,1)	(1,0)	(1,0)	(1,0)	(1,0)	(1,0)	(1,0)	(1,0)	
L1D -329>	(288,1)	(202,5)	(1,67)	(2,5)	(1,0)	(1,0)	(1,0)	(1,0)	(1,0)	(1,0)	(1,0)	(1,0)	(1,0)	(1,0)	(1,0)	(1,0)	
L1D -328>	(202,6)	(3,4)	(330,10)	(326,2)	(2,2)	(0,1)	(4,5)	(8,4)	(-1,19)	(1,4)	(210,1)	(360,1)	(-20,1)	(1,0)	(1,0)	(1,0)	
L1D -327>	(202,1)	(4,1)	(326,3)	(327,1)	(185,1)	(1,0)	(1,0)	(1,0)	(1,0)	(1,0)	(1,0)	(1,0)	(1,0)	(1,0)	(1,0)	(1,0)	
L1D -326>	(2,3)	(330,8)	(3,3)	(1,1)	(0,2)	(202,2)	(326,1)	(-141,1)	(221,1)	(179,1)	(321,1)	(1,0)	(1,0)	(1,0)	(1,0)	(1,0)	
L1D -325>	(202,9)	(1,2)	(-1,5)	(1,0)	(1,0)	(1,0)	(1,0)	(1,0)	(1,0)	(1,0)	(1,0)	(1,0)	(1,0)	(1,0)	(1,0)	(1,0)	
L1D -324>	(202,9)	(3,4)	(326,7)	(1,2)	(0,2)	(2,2)	(4,3)	(324,1)	(302,1)	(156,1)	(1,0)	(1,0)	(1,0)	(1,0)	(1,0)	(1,0)	
L1D -323>	(1,2)	(104,1)	(-46,1)	(1,0)	(1,0)	(1,0)	(1,0)	(1,0)	(1,0)	(1,0)	(1,0)	(1,0)	(1,0)	(1,0)	(1,0)	(1,0)	
L1D -322>	(202,4)	(3,5)	(326,8)	(0,3)	(1,2)	(322,2)	(208,1)	(-46,1)	(201,1)	(1,0)	(1,0)	(1,0)	(1,0)	(1,0)	(1,0)	(1,0)	
L1D -321>	(318,32)	(202,3)	(156,1)	(1,42)	(320,6)	(321,2)	(0,10)	(178,1)	(1,0)	(1,0)	(1,0)	(1,0)	(1,0)	(1,0)	(1,0)	(1,0)	
L1D -320>	(-4,1)	(1,7)	(2,3)	(322,8)	(202,4)	(3,3)	(318,2)	(0,5)	(8,4)	(212,1)	(199,1)	(320,6)	(321,2)	(295,1)	(1,0)	(1,0)	
L1D -319>	(8,1)	(319,1)	(320,9)	(0,1)	(1,1)	(440,1)	(1,0)	(1,0)	(1,0)	(1,0)	(1,0)	(1,0)	(1,0)	(1,0)	(1,0)	(1,0)	
L1D -318>	(318,2)	(2,4)	(0,3)	(322,8)	(3,4)	(1,2)	(-105,4)	(271,1)	(186,1)	(418,1)	(1,0)	(1,0)	(1,0)	(1,0)	(1,0)	(1,0)	
L1D -317>	(202,7)	(2,1)	(209,1)	(211,4)	(3,1)	(318,4)	(1,2)	(106,58)	(276,1)	(321,1)	(0,1)	(-1,1)	(1,0)	(1,0)	(1,0)	(1,0)	
L1D -316>	(4,2)	(318,23)	(202,7)	(270,2)	(206,1)	(218,1)	(222,1)	(226,2)	(320,6)	(1,4)	(246,2)	(238,1)	(3,3)	(254,1)	(0,1)	(258,2)	
L1D -315>	(202,1)	(205,1)	(318,3)	(60,1)	(1,93)	(2,1)	(314,1)	(315,2)	(152,1)	(-1,1)	(1,0)	(1,0)	(1,0)	(1,0)	(1,0)	(1,0)	
L1D -314>	(202,2)	(3,5)	(318,6)	(314,1)	(0,4)	(2,6)	(208,3)	(1,7)	(4,1)	(106,51)	(212,1)	(60,9)	(-1,2)	(92,1)	(65,1)	(1,0)	
L1D -313>	(202,7)	(2,1)	(317,1)	(106,1)	(-1,2)	(164,1)	(1,0)	(1,0)	(1,0)	(1,0)	(1,0)	(1,0)	(1,0)	(1,0)	(1,0)	(1,0)	
L1D -312>	(202,4)	(0,2)	(314,8)	(2,4)	(88,1)	(3,3)	(1,4)	(4,2)	(8,1)	(62,1)	(-16,1)	(312,3)	(-98,1)	(109,1)	(297,1)	(438,1)	
L1D -311>	(202,3)	(318,1)	(310,3)	(-1,3)	(1,2)	(1,0)	(1,0)	(1,0)	(1,0)	(1,0)	(1,0)	(1,0)	(1,0)	(1,0)	(1,0)	(1,0)	
L1D -310>	(202,3)	(2,4)	(314,7)	(1,12)	(0,4)	(310,9)	(400,1)	(120,1)	(-1,2)	(26,1)	(311,2)	(10,1)	(298,1)	(284,1)	(1,0)	(1,0)	
L1D -309>	(202,12)	(2,1)	(-1,9)	(159,1)	(70,1)	(1,0)	(1,0)	(1,0)	(1,0)	(1,0)	(1,0)	(1,0)	(1,0)	(1,0)	(1,0)	(1,0)	
L1D -308>	(202,9)	(3,1)	(310,5)	(0,5)	(306,1)	(1,1)	(2,3)	(8,1)	(4,1)	(-22,1)	(148,1)	(325,1)	(459,1)	(354,1)	(70,1)	(1,0)	
L1D -307>	(1,1)	(8,1)	(4,1)	(307,1)	(-1,2)	(213,1)	(1,0)	(1,0)	(1,0)	(1,0)	(1,0)	(1,0)	(1,0)	(1,0)	(1,0)	(1,0)	
L1D -306>	(202,4)	(508,1)	(0,4)	(310,8)	(3,1)	(2,3)	(325,1)	(306,4)	(1,3)	(87,1)	(-1,1)	(1,0)	(1,0)	(1,0)	(1,0)	(1,0)	
L1D -305>	(202,4)	(2,1)	(1,1)	(-1,3)	(1,0)	(1,0)	(1,0)	(1,0)	(1,0)	(1,0)	(1,0)	(1,0)	(1,0)	(1,0)	(1,0)	(1,0)	
L1D -304>	(202,6)	(0,2)	(306,7)	(2,3)	(1,2)	(3,2)	(302,1)	(4,3)	(8,1)	(68,1)	(163,1)	(1,0)	(1,0)	(1,0)	(1,0)	(1,0)	
L1D -303>	(202,3)	(2,5)	(318,1)	(4,2)	(1,89)	(3,2)	(302,2)	(303,3)	(218,1)	(-1,1)	(1,0)	(1,0)	(1,0)	(1,0)	(1,0)	(1,0)	
L1D -302>	(2,8)	(306,4)	(352,1)	(202,4)	(3,1)	(0,1)	(8,1)	(1,9)	(302,3)	(30,1)	(410,1)	(-1,1)	(117,1)	(406,1)	(136,2)	(1,0)	
L1D -301>	(202,5)	(318,1)	(300,1)	(1,2)	(301,1)	(316,1)	(-1,4)	(186,1)	(1,0)	(1,0)	(1,0)	(1,0)	(1,0)	(1,0)	(1,0)	(1,0)	
L1D -300>	(3,4)	(302,11)	(202,3)	(298,1)	(2,2)	(0,2)	(1,6)	(4,1)	(8,1)	(300,2)	(-1,1)	(246,1)	(268,1)	(136,1)	(1,0)	(1,0)	
L1D -299>	(1,2)	(-1,1)	(299,2)	(159,1)	(321,1)	(1,0)	(1,0)	(1,0)	(1,0)	(1,0)	(1,0)	(1,0)	(1,0)	(1,0)	(1,0)	(1,0)	
L1D -298>	(202,6)	(278,1)	(302,6)	(2,3)	(3,3)	(0,2)	(298,5)	(190,1)	(296,1)	(1,5)	(-112,1)	(-2,2)	(246,1)	(-1,1)	(310,1)	(169,1)	
L1D -297>	(202,6)	(1,6)	(280,3)	(51,1)	(-1,7)	(1,0)	(1,0)	(1,0)	(1,0)	(1,0)	(1,0)	(1,0)	(1,0)	(1,0)	(1,0)	(1,0)	
L1D -296>	(3,4)	(298,9)	(1,5)	(202,5)	(0,6)	(8,2)	(2,1)	(280,24)	(248,2)	(231,1)	(337,1)	(376,1)	(169,1)	(224,1)	(303,1)	(310,1)	
L1D -295>	(202,2)	(218,6)	(1,4)	(-1,1)	(321,1)	(294,1)	(1,0)	(1,0)	(1,0)	(1,0)	(1,0)	(1,0)	(1,0)	(1,0)	(1,0)	(1,0)	
L1D -294>	(2,5)	(0,2)	(3,3)	(1,5)	(298,6)	(202,1)	(218,22)	(205,1)	(17,1)	(132,1)	(1,0)	(1,0)	(1,0)	(1,0)	(1,0)	(1,0)	
L1D -293>	(202,5)	(8,1)	(292,17)	(1,103)	(4,6)	(252,4)	(216,5)	(3,1)	(109,1)	(-1,1)	(1,0)	(1,0)	(1,0)	(1,0)	(1,0)	(1,0)	
L1D -292>	(202,3)	(492,1)	(294,8)	(0,3)	(3,3)	(290,1)	(2,2)	(4,26)	(180,1)	(1,43)	(252,23)	(216,22)	(292,6)	(-46,1)	(1,0)	(1,0)	
L1D -291>	(202,1)	(-1,1)	(1,0)	(1,0)	(1,0)	(1,0)	(1,0)	(1,0)	(1,0)	(1,0)	(1,0)	(1,0)	(1,0)	(1,0)	(1,0)	(1,0)	
L1D -290>	(2,5)	(294,5)	(3,3)	(1,2)	(0,1)	(288,1)	(290,2)	(-1,2)	(344,1)	(48,1)	(1,0)	(1,0)	(1,0)	(1,0)	(1,0)	(1,0)	
L1D -289>	(202,9)	(4,1)	(396,7)	(1,34)	(132,8)	(-1,2)	(1,0)	(1,0)	(1,0)	(1,0)	(1,0)	(1,0)	(1,0)	(1,0)	(1,0)	(1,0)	
L1D -288>	(202,4)	(3,3)	(290,10)	(0,3)	(1,12)	(2,3)	(4,5)	(8,3)	(311,1)	(396,37)	(132,3)	(108,1)	(231,1)	(288,1)	(-92,1)	(94,1)	
L1D -287>	(202,1)	(284,1)	(2,2)	(92,1)	(87,1)	(1,0)	(1,0)	(1,0)	(1,0)	(1,0)	(1,0)	(1,0)	(1,0)	(1,0)	(1,0)	(1,0)	
L1D -286>	(1,4)	(290,4)	(3,3)	(202,2)	(0,2)	(2,1)	(-1,2)	(115,1)	(286,2)	(37,1)	(1,0)	(1,0)	(1,0)	(1,0)	(1,0)	(1,0)	
L1D -285>	(202,1)	(7,1)	(-1,1)	(1,45)	(284,6)	(285,2)	(0,10)	(277,1)	(1,0)	(1,0)	(1,0)	(1,0)	(1,0)	(1,0)	(1,0)	(1,0)	
L1D -284>	(0,7)	(286,7)	(202,3)	(3,3)	(282,1)	(1,9)	(2,1)	(8,1)	(4,2)	(285,3)	(100,1)	(166,1)	(418,1)	(123,1)	(284,4)	(1,0)	
L1D -283>	(202,2)	(2,1)	(-1,4)	(7,1)	(276,1)	(43,1)	(284,9)	(0,1)	(-31,1)	(1,0)	(1,0)	(1,0)	(1,0)	(1,0)	(1,0)	(1,0)	
L1D -282>	(202,3)	(2,4)	(286,4)	(0,2)	(3,2)	(282,1)	(-126,1)	(184,1)	(-24,1)	(228,1)	(-1,1)	(1,0)	(1,0)	(1,0)	(1,0)	(1,0)	
L1D -281>	(202,2)	(0,1)	(1,0)	(1,0)	(1,0)	(1,0)	(1,0)	(1,0)	(1,0)	(1,0)	(1,0)	(1,0)	(1,0)	(1,0)	(1,0)	(1,0)	
L1D -280>	(202,4)	(0,4)	(282,9)	(3,1)	(2,3)	(4,1)	(8,2)	(-38,1)	(280,3)	(75,1)	(1,3)	(107,1)	(240,1)	(-1,1)	(1,0)	(1,0)	
L1D -279>	(202,1)	(2,1)	(-202,1)	(3,1)	(1,8)	(-59,1)	(78,1)	(-1,2)	(1,0)	(1,0)	(1,0)	(1,0)	(1,0)	(1,0)	(1,0)	(1,0)	
L1D -278>	(202,2)	(2,3)	(0,2)	(302,1)	(282,2)	(278,1)	(1,33)	(8,1)	(74,14)	(247,1)	(188,1)	(95,1)	(307,1)	(127,1)	(-12,1)	(-1,1)	
L1D -277>	(202,3)	(2,1)	(1,6)	(310,3)	(276,2)	(296,1)	(1,0)	(1,0)	(1,0)	(1,0)	(1,0)	(1,0)	(1,0)	(1,0)	(1,0)	(1,0)	
L1D -276>	(202,3)	(0,4)	(278,5)	(2,5)	(274,1)	(8,3)	(4,3)	(1,37)	(276,13)	(310,39)	(311,5)	(304,1)	(234,1)	(-1,1)	(166,1)	(248,4)	
L1D -275>	(202,1)	(2,1)	(-202,1)	(1,4)	(212,2)	(404,1)	(-1,1)	(276,1)	(1,0)	(1,0)	(1,0)	(1,0)	(1,0)	(1,0)	(1,0)	(1,0)	
L1D -274>	(202,5)	(2,2)	(0,3)	(274,1)	(278,2)	(3,2)	(1,54)	(-202,1)	(276,13)	(140,1)	(329,1)	(177,1)	(275,1)	(19,3)	(1,0)	(1,0)	
L1D -273>	(202,5)	(1,5)	(273,1)	(-1,2)	(1,0)	(1,0)	(1,0)	(1,0)	(1,0)	(1,0)	(1,0)	(1,0)	(1,0)	(1,0)	(1,0)	(1,0)	
L1D -272>	(50,0)	(0,4)	(3,0)	(274,0)	(-202,0)	(5,0)	(272,105)	(1,0)	(1,0)	(1,0)	(1,0)	(1,0)	(1,0)	(1,0)	(1,0)	(1,0)	
L1D -271>	(202,1)	(264,1)	(190,1)	(2,1)	(210,7)	(1,18)	(63,1)	(-1,1)	(271,85)	(270,1)	(0,1)	(251,1)	(1,0)	(1,0)	(1,0)	(1,0)	
L1D -270>	(202,5)	(2,6)	(274,3)	(1,10)	(3,1)	(266,1)	(405,1)	(322,1)	(270,1)	(205,1)	(171,1)	(1,0)	(1,0)	(1,0)	(1,0)	(1,0)	
L1D -269>	(202,4)	(0,3)	(1,3)	(-1,11)	(1,0)	(1,0)	(1,0)	(1,0)	(1,0)	(1,0)	(1,0)	(1,0)	(1,0)	(1,0)	(1,0)	(1,0)	
L1D -268>	(202,4)	(0,2)	(270,6)	(1,3)	(2,3)	(8,2)	(4,1)	(-12,1)	(320,1)	(156,1)	(1,0)	(1,0)	(1,0)	(1,0)	(1,0)	(1,0)	
L1D -267>	(190,1)	(-202,1)	(1,8)	(262,1)	(-50,1)	(-1,1)	(1,0)	(1,0)	(1,0)	(1,0)	(1,0)	(1,0)	(1,0)	(1,0)	(1,0)	(1,0)	
L1D -266>	(2,4)	(0,3)	(270,2)	(202,1)	(-202,1)	(266,2)	(3,1)	(1,89)	(232,31)	(262,14)	(228,6)	(251,1)	(179,1)	(-10,1)	(267,1)	(1,0)	
L1D -265>	(202,5)	(-11,1)	(303,1)	(-18,1)	(-1,1)	(1,0)	(1,0)	(1,0)	(1,0)	(1,0)	(1,0)	(1,0)	(1,0)	(1,0)	(1,0)	(1,0)	
L1D -264>	(202,5)	(2,3)	(266,4)	(3,1)	(0,2)	(4,2)	(8,6)	(5,1)	(1,1)	(1,0)	(1,0)	(1,0)	(1,0)	(1,0)	(1,0)	(1,0)	
L1D -263>	(256,1)	(-202,1)	(502,7)	(503,1)	(105,1)	(262,5)	(-15,1)	(129,1)	(0,1)	(1,2)	(1,0)	(1,0)	(1,0)	(1,0)	(1,0)	(1,0)	
L1D -262>	(202,2)	(316,1)	(1,16)	(0,1)	(266,3)	(2,2)	(3,1)	(-105,1)	(8,1)	(502,32)	(503,1)	(269,1)	(262,2)	(346,1)	(-1,1)	(1,0)	
L1D -261>	(202,6)	(26,1)	(8,1)	(0,1)	(260,1)	(1,1)	(261,2)	(403,1)	(-1,3)	(1,0)	(1,0)	(1,0)	(1,0)	(1,0)	(1,0)	(1,0)	
L1D -260>	(0,3)	(262,5)	(202,2)	(1,7)	(258,1)	(4,2)	(3,1)	(-178,1)	(106,1)	(222,1)	(230,1)	(114,1)	(260,1)	(167,1)	(1,0)	(1,0)	
L1D -259>	(-202,2)	(202,1)	(1,35)	(150,1)	(-1,5)	(0,1)	(1,0)	(1,0)	(1,0)	(1,0)	(1,0)	(1,0)	(1,0)	(1,0)	(1,0)	(1,0)	
L1D -258>	(202,4)	(2,3)	(262,3)	(86,2)	(1,2)	(-202,1)	(260,1)	(0,3)	(4,1)	(181,1)	(-1,2)	(141,1)	(20,1)	(243,1)	(258,2)	(-86,1)	
L1D -257>	(202,3)	(255,1)	(1,0)	(1,0)	(1,0)	(1,0)	(1,0)	(1,0)	(1,0)	(1,0)	(1,0)	(1,0)	(1,0)	(1,0)	(1,0)	(1,0)	
L1D -256>	(202,2)	(2,3)	(258,4)	(1,3)	(8,25)	(4,25)	(9,4)	(6,1)	(436,1)	(257,1)	(-176,1)	(148,1)	(241,1)	(-3,4)	(86,2)	(1,0)	
L1D -255>	(1,7)	(-1,3)	(-12,1)	(257,1)	(1,0)	(1,0)	(1,0)	(1,0)	(1,0)	(1,0)	(1,0)	(1,0)	(1,0)	(1,0)	(1,0)	(1,0)	
L1D -254>	(92,1)	(202,3)	(248,1)	(2,1)	(1,34)	(324,1)	(0,2)	(258,51)	(3,1)	(34,15)	(255,3)	(33,2)	(-83,1)	(-140,1)	(163,1)	(364,1)	
L1D -253>	(202,5)	(144,15)	(-13,1)	(253,1)	(165,1)	(288,2)	(138,1)	(-1,1)	(1,0)	(1,0)	(1,0)	(1,0)	(1,0)	(1,0)	(1,0)	(1,0)	
L1D -252>	(1,2)	(202,6)	(254,5)	(0,3)	(2,1)	(364,1)	(-24,1)	(1,0)	(1,0)	(1,0)	(1,0)	(1,0)	(1,0)	(1,0)	(1,0)	(1,0)	
L1D -251>	(-202,1)	(202,2)	(212,2)	(1,4)	(111,1)	(247,1)	(-1,1)	(239,1)	(1,0)	(1,0)	(1,0)	(1,0)	(1,0)	(1,0)	(1,0)	(1,0)	
L1D -250>	(246,2)	(202,2)	(1,5)	(0,2)	(254,2)	(186,1)	(368,1)	(177,1)	(392,1)	(126,1)	(-172,1)	(70,1)	(1,0)	(1,0)	(1,0)	(1,0)	
L1D -249>	(202,1)	(1,92)	(168,20)	(26,3)	(170,11)	(256,1)	(-1,1)	(245,1)	(241,1)	(249,1)	(1,0)	(1,0)	(1,0)	(1,0)	(1,0)	(1,0)	
L1D -248>	(202,3)	(376,1)	(0,3)	(250,2)	(1,39)	(2,1)	(-105,1)	(5,1)	(26,36)	(24,1)	(8,1)	(247,1)	(187,1)	(206,1)	(398,1)	(244,2)	
L1D -247>	(202,1)	(318,1)	(2,4)	(-202,4)	(247,4)	(1,29)	(3,3)	(-200,1)	(120,1)	(243,2)	(-1,1)	(301,1)	(102,1)	(1,0)	(1,0)	(1,0)	
L1D -246>	(202,2)	(304,1)	(1,27)	(0,5)	(250,1)	(5,1)	(215,5)	(42,9)	(336,1)	(-58,1)	(245,7)	(246,1)	(96,1)	(-10,4)	(158,1)	(1,0)	
L1D -245>	(0,2)	(6,1)	(202,3)	(2,1)	(8,1)	(1,4)	(241,1)	(-1,1)	(1,0)	(1,0)	(1,0)	(1,0)	(1,0)	(1,0)	(1,0)	(1,0)	
L1D -244>	(240,1)	(8,2)	(202,3)	(0,3)	(4,2)	(236,1)	(168,2)	(214,1)	(76,1)	(1,1)	(243,4)	(54,1)	(436,1)	(187,1)	(1,0)	(1,0)	
L1D -243>	(202,1)	(2,1)	(-202,1)	(-105,1)	(76,1)	(1,4)	(422,6)	(239,2)	(0,1)	(-1,1)	(6,1)	(1,0)	(1,0)	(1,0)	(1,0)	(1,0)	
L1D -242>	(202,2)	(2,2)	(1,39)	(246,2)	(0,2)	(241,2)	(-116,11)	(240,1)	(185,1)	(210,1)	(182,1)	(238,4)	(1,0)	(1,0)	(1,0)	(1,0)	
L1D -241>	(4,1)	(202,1)	(318,1)	(240,3)	(-262,2)	(1,2)	(-1,1)	(237,2)	(241,4)	(1,0)	(1,0)	(1,0)	(1,0)	(1,0)	(1,0)	(1,0)	
L1D -240>	(239,3)	(202,3)	(1,50)	(2,2)	(0,4)	(8,4)	(4,3)	(240,13)	(-262,38)	(332,1)	(290,12)	(241,2)	(289,2)	(48,98)	(12,1)	(-124,1)	
L1D -239>	(239,1)	(0,1)	(246,1)	(2,1)	(-202,2)	(106,1)	(3,1)	(289,2)	(-10,1)	(235,1)	(-1,1)	(1,0)	(1,0)	(1,0)	(1,0)	(1,0)	
L1D -238>	(237,3)	(1,3)	(0,1)	(2,1)	(238,2)	(190,1)	(1,0)	(1,0)	(1,0)	(1,0)	(1,0)	(1,0)	(1,0)	(1,0)	(1,0)	(1,0)	
L1D -237>	(202,1)	(2,1)	(215,10)	(-1,2)	(236,2)	(1,3)	(284,1)	(0,4)	(271,1)	(1,0)	(1,0)	(1,0)	(1,0)	(1,0)	(1,0)	(1,0)	
L1D -236>	(202,7)	(0,1)	(238,2)	(2,1)	(-106,1)	(4,1)	(8,2)	(-30,6)	(1,26)	(237,2)	(236,1)	(289,1)	(151,1)	(235,1)	(1,0)	(1,0)	
L1D -235>	(318,1)	(2,1)	(202,1)	(-202,4)	(1,2)	(-1,3)	(254,1)	(235,1)	(1,0)	(1,0)	(1,0)	(1,0)	(1,0)	(1,0)	(1,0)	(1,0)	
L1D -234>	(233,1)	(202,2)	(2,5)	(-202,2)	(238,2)	(0,2)	(1,1)	(246,1)	(-11,1)	(1,0)	(1,0)	(1,0)	(1,0)	(1,0)	(1,0)	(1,0)	
L1D -233>	(202,1)	(1,1)	(-21,1)	(1,0)	(1,0)	(1,0)	(1,0)	(1,0)	(1,0)	(1,0)	(1,0)	(1,0)	(1,0)	(1,0)	(1,0)	(1,0)	
L1D -232>	(2,2)	(234,1)	(8,2)	(4,2)	(5,1)	(192,19)	(-1,1)	(1,3)	(233,1)	(132,1)	(232,2)	(230,1)	(212,1)	(61,1)	(180,1)	(1,0)	
L1D -231>	(202,1)	(318,1)	(-202,3)	(2,2)	(-105,1)	(1,40)	(3,6)	(-1,11)	(227,1)	(411,1)	(-21,1)	(1,0)	(1,0)	(1,0)	(1,0)	(1,0)	
L1D -230>	(202,3)	(320,1)	(1,3)	(-202,1)	(0,1)	(234,1)	(2,1)	(88,1)	(212,1)	(238,1)	(242,1)	(86,1)	(158,1)	(1,0)	(1,0)	(1,0)	
L1D -229>	(202,2)	(106,1)	(6,18)	(235,1)	(1,0)	(1,0)	(1,0)	(1,0)	(1,0)	(1,0)	(1,0)	(1,0)	(1,0)	(1,0)	(1,0)	(1,0)	
L1D -228>	(227,5)	(202,4)	(230,2)	(0,2)	(106,1)	(8,3)	(233,1)	(1,2)	(228,3)	(378,1)	(262,1)	(402,1)	(224,1)	(1,0)	(1,0)	(1,0)	
L1D -227>	(-202,1)	(226,1)	(1,2)	(-1,2)	(201,1)	(1,0)	(1,0)	(1,0)	(1,0)	(1,0)	(1,0)	(1,0)	(1,0)	(1,0)	(1,0)	(1,0)	
L1D -226>	(318,1)	(2,3)	(-202,5)	(202,1)	(0,1)	(1,2)	(-12,1)	(-33,1)	(153,1)	(225,1)	(28,1)	(1,0)	(1,0)	(1,0)	(1,0)	(1,0)	
L1D -225>	(202,5)	(-202,1)	(1,2)	(115,1)	(0,1)	(-1,3)	(225,1)	(15,1)	(108,1)	(253,1)	(170,1)	(224,1)	(1,0)	(1,0)	(1,0)	(1,0)	
L1D -224>	(202,2)	(226,1)	(4,2)	(8,2)	(5,1)	(1,2)	(224,1)	(-48,1)	(-100,1)	(269,1)	(172,1)	(110,1)	(78,1)	(-126,1)	(0,1)	(1,0)	
L1D -223>	(318,1)	(202,1)	(1,66)	(3,7)	(2,15)	(34,7)	(272,1)	(207,11)	(-1,1)	(400,5)	(-112,4)	(-222,2)	(212,1)	(8,1)	(265,1)	(1,0)	
L1D -222>	(318,1)	(216,1)	(-202,1)	(202,1)	(3,1)	(1,26)	(4,1)	(2,2)	(34,33)	(-4,1)	(90,1)	(247,1)	(264,1)	(-222,1)	(1,0)	(1,0)	
L1D -221>	(2,3)	(0,2)	(219,89)	(1,41)	(215,1)	(465,1)	(116,1)	(-1,1)	(1,0)	(1,0)	(1,0)	(1,0)	(1,0)	(1,0)	(1,0)	(1,0)	
L1D -220>	(202,2)	(-202,1)	(8,1)	(208,1)	(1,4)	(180,5)	(-1,16)	(219,2)	(186,1)	(-2,3)	(-4,1)	(10,1)	(32,1)	(1,0)	(1,0)	(1,0)	
L1D -219>	(-202,7)	(1,106)	(2,3)	(30,10)	(-1,3)	(4,1)	(5,1)	(-7,4)	(415,1)	(-173,1)	(61,2)	(1,0)	(1,0)	(1,0)	(1,0)	(1,0)	
L1D -218>	(202,3)	(9,3)	(2,10)	(146,2)	(1,15)	(3,2)	(23,3)	(24,3)	(30,35)	(28,1)	(218,1)	(-76,1)	(86,1)	(114,1)	(166,1)	(145,2)	
L1D -217>	(1,20)	(217,3)	(202,1)	(4,3)	(2,2)	(24,1)	(3,2)	(23,2)	(248,8)	(0,2)	(62,1)	(-1,3)	(233,1)	(115,1)	(1,0)	(1,0)	
L1D -216>	(202,2)	(106,1)	(4,4)	(25,1)	(2,2)	(24,3)	(1,7)	(50,1)	(189,1)	(-10,1)	(167,1)	(172,1)	(-8,1)	(19,2)	(1,0)	(1,0)	
L1D -215>	(106,1)	(244,1)	(60,1)	(4,0)	(212,119)	(1,1)	(1,0)	(1,0)	(1,0)	(1,0)	(1,0)	(1,0)	(1,0)	(1,0)	(1,0)	(1,0)	
L1D -214>	(224,1)	(202,3)	(2,2)	(-202,2)	(3,1)	(212,33)	(39,1)	(4,8)	(1,3)	(-11,1)	(0,1)	(300,1)	(426,1)	(443,1)	(1,0)	(1,0)	
L1D -213>	(202,1)	(350,1)	(272,1)	(32,2)	(1,4)	(1,0)	(1,0)	(1,0)	(1,0)	(1,0)	(1,0)	(1,0)	(1,0)	(1,0)	(1,0)	(1,0)	
L1D -212>	(1,3)	(110,12)	(100,1)	(345,1)	(312,1)	(0,1)	(212,66)	(-106,1)	(-110,2)	(-3,1)	(239,1)	(-114,1)	(-122,2)	(-118,1)	(1,0)	(1,0)	
L1D -211>	(-74,1)	(-1,2)	(202,0)	(318,0)	(106,0)	(-106,0)	(212,87)	(1,1)	(1,0)	(1,0)	(1,0)	(1,0)	(1,0)	(1,0)	(1,0)	(1,0)	
L1D -210>	(123,1)	(49,1)	(180,1)	(250,1)	(212,90)	(1,3)	(22,1)	(1,0)	(1,0)	(1,0)	(1,0)	(1,0)	(1,0)	(1,0)	(1,0)	(1,0)	
L1D -209>	(-16,1)	(35,1)	(212,112)	(400,1)	(-22,1)	(1,4)	(203,1)	(-1,1)	(71,1)	(16,2)	(-70,1)	(1,0)	(1,0)	(1,0)	(1,0)	(1,0)	
L1D -208>	(202,2)	(40,2)	(316,2)	(209,1)	(2,3)	(318,5)	(8,4)	(106,5)	(4,1)	(-4,1)	(212,17)	(1,5)	(400,35)	(150,1)	(102,1)	(-62,1)	
L1D -207>	(2,4)	(-202,3)	(0,1)	(8,1)	(1,2)	(38,1)	(-186,1)	(-1,1)	(1,0)	(1,0)	(1,0)	(1,0)	(1,0)	(1,0)	(1,0)	(1,0)	
L1D -206>	(6,1)	(-202,1)	(213,1)	(316,3)	(0,1)	(1,1)	(275,1)	(1,0)	(1,0)	(1,0)	(1,0)	(1,0)	(1,0)	(1,0)	(1,0)	(1,0)	
L1D -205>	(318,1)	(2,1)	(138,1)	(1,5)	(204,1)	(-1,1)	(1,0)	(1,0)	(1,0)	(1,0)	(1,0)	(1,0)	(1,0)	(1,0)	(1,0)	(1,0)	
L1D -204>	(4,81)	(200,1)	(346,1)	(2,1)	(374,1)	(470,1)	(378,1)	(406,1)	(318,2)	(350,1)	(-184,1)	(342,2)	(402,1)	(1,5)	(18,1)	(462,1)	
L1D -203>	(200,86)	(2,25)	(-202,4)	(3,43)	(1,37)	(264,1)	(-1,4)	(-2,2)	(61,1)	(1,0)	(1,0)	(1,0)	(1,0)	(1,0)	(1,0)	(1,0)	
L1D -202>	(1,31)	(204,62)	(2,127)	(4,8)	(200,28)	(3,20)	(-200,2)	(-201,1)	(370,1)	(30,1)	(-78,1)	(338,1)	(318,1)	(426,1)	(229,1)	(310,0)	
L1D -201>	(202,1)	(318,1)	(2,12)	(200,13)	(3,26)	(1,10)	(-200,4)	(203,2)	(190,1)	(217,1)	(1,0)	(1,0)	(1,0)	(1,0)	(1,0)	(1,0)	
L1D -200>	(-200,41)	(2,92)	(202,63)	(1,104)	(3,125)	(203,2)	(4,1)	(400,1)	(200,59)	(-10,1)	(1,0)	(1,0)	(1,0)	(1,0)	(1,0)	(1,0)	
L1D -199>	(190,1)	(2,36)	(-202,7)	(318,1)	(4,1)	(200,34)	(1,90)	(3,21)	(-198,1)	(-1,1)	(199,1)	(1,0)	(1,0)	(1,0)	(1,0)	(1,0)	
L1D -198>	(3,48)	(202,6)	(2,35)	(318,5)	(-202,3)	(1,18)	(200,120)	(199,4)	(398,9)	(-5,1)	(426,1)	(198,1)	(167,1)	(1,0)	(1,0)	(1,0)	
L1D -197>	(318,1)	(198,8)	(-203,4)	(200,4)	(2,5)	(1,5)	(-198,1)	(397,4)	(-3,1)	(3,4)	(-5,3)	(74,1)	(-43,1)	(-1,1)	(294,1)	(1,0)	
L1D -196>	(4,6)	(8,5)	(200,78)	(-5,5)	(1,24)	(2,51)	(3,10)	(-4,2)	(199,5)	(31,1)	(-1,1)	(-64,1)	(1,0)	(1,0)	(1,0)	(1,0)	
L1D -195>	(-202,1)	(200,10)	(4,18)	(8,4)	(24,1)	(-5,3)	(18,1)	(2,1)	(71,1)	(-1,6)	(6,1)	(194,1)	(195,1)	(1,0)	(1,0)	(1,0)	
L1D -194>	(318,4)	(-202,2)	(2,2)	(4,2)	(1,2)	(379,1)	(378,1)	(-50,1)	(71,1)	(3,4)	(1,0)	(1,0)	(1,0)	(1,0)	(1,0)	(1,0)	
L1D -193>	(220,1)	(4,1)	(1,20)	(90,15)	(192,5)	(-1,2)	(272,1)	(222,1)	(-16,1)	(1,0)	(1,0)	(1,0)	(1,0)	(1,0)	(1,0)	(1,0)	
L1D -192>	(-62,0)	(188,0)	(6,0)	(4,0)	(196,0)	(200,0)	(8,0)	(1,0)	(-48,124)	(48,13)	(259,0)	(1,0)	(1,0)	(1,0)	(1,0)	(1,0)	
L1D -191>	(-202,3)	(2,1)	(4,7)	(36,1)	(8,5)	(1,32)	(76,1)	(190,2)	(3,1)	(15,1)	(206,1)	(-1,4)	(191,2)	(261,1)	(1,0)	(1,0)	
L1D -190>	(214,1)	(204,1)	(236,1)	(244,1)	(252,1)	(272,1)	(280,1)	(4,3)	(1,10)	(76,4)	(190,2)	(-34,1)	(20,1)	(191,1)	(223,1)	(92,1)	
L1D -189>	(2,2)	(4,1)	(-1,5)	(1,1)	(1,0)	(1,0)	(1,0)	(1,0)	(1,0)	(1,0)	(1,0)	(1,0)	(1,0)	(1,0)	(1,0)	(1,0)	
L1D -188>	(190,1)	(266,1)	(2,1)	(109,1)	(279,1)	(0,2)	(71,1)	(-44,1)	(-18,3)	(239,4)	(57,1)	(1,0)	(1,0)	(1,0)	(1,0)	(1,0)	
L1D -187>	(-202,5)	(2,3)	(1,1)	(186,1)	(251,1)	(313,1)	(188,2)	(-198,1)	(1,0)	(1,0)	(1,0)	(1,0)	(1,0)	(1,0)	(1,0)	(1,0)	
L1D -186>	(2,7)	(-202,2)	(4,1)	(18,1)	(-47,1)	(-114,1)	(1,3)	(-134,1)	(163,1)	(1,0)	(1,0)	(1,0)	(1,0)	(1,0)	(1,0)	(1,0)	
L1D -185>	(1,4)	(352,2)	(-1,4)	(281,1)	(79,1)	(1,0)	(1,0)	(1,0)	(1,0)	(1,0)	(1,0)	(1,0)	(1,0)	(1,0)	(1,0)	(1,0)	
L1D -184>	(3,3)	(7,2)	(4,15)	(6,1)	(2,9)	(1,2)	(-202,1)	(8,3)	(18,1)	(182,1)	(320,1)	(333,1)	(246,1)	(61,1)	(-36,1)	(1,0)	
L1D -183>	(-1,2)	(2,5)	(252,1)	(1,67)	(229,1)	(182,9)	(163,1)	(-68,2)	(318,1)	(1,0)	(1,0)	(1,0)	(1,0)	(1,0)	(1,0)	(1,0)	
L1D -182>	(-202,8)	(4,1)	(1,30)	(-68,2)	(-32,2)	(-166,1)	(-104,1)	(-65,4)	(350,1)	(1,0)	(1,0)	(1,0)	(1,0)	(1,0)	(1,0)	(1,0)	
L1D -181>	(2,1)	(8,1)	(324,1)	(259,1)	(245,1)	(181,2)	(210,1)	(64,1)	(319,1)	(-1,2)	(-10,10)	(4,1)	(16,4)	(-39,3)	(-27,1)	(1,0)	
L1D -180>	(200,1)	(4,1)	(242,1)	(1,3)	(203,1)	(-1,1)	(-62,1)	(233,1)	(1,0)	(1,0)	(1,0)	(1,0)	(1,0)	(1,0)	(1,0)	(1,0)	
L1D -179>	(0,1)	(2,1)	(-202,4)	(1,50)	(-56,1)	(-50,1)	(-1,1)	(418,1)	(153,1)	(-40,1)	(1,0)	(1,0)	(1,0)	(1,0)	(1,0)	(1,0)	
L1D -178>	(2,4)	(-202,4)	(1,12)	(3,2)	(-56,3)	(35,1)	(369,1)	(312,1)	(152,1)	(231,1)	(172,1)	(308,1)	(332,1)	(-70,1)	(1,0)	(1,0)	
L1D -177>	(-202,2)	(1,97)	(332,16)	(270,1)	(176,2)	(-32,1)	(-57,4)	(2,5)	(-56,4)	(-55,2)	(3,1)	(-34,17)	(-1,3)	(289,1)	(277,1)	(-103,1)	
L1D -176>	(-202,2)	(4,2)	(180,4)	(-15,2)	(200,2)	(3,1)	(1,23)	(-32,8)	(176,7)	(-56,3)	(2,2)	(-94,1)	(22,1)	(65,1)	(64,1)	(0,1)	
L1D -175>	(-202,5)	(4,2)	(8,1)	(-57,1)	(-56,1)	(-200,1)	(-35,4)	(19,4)	(1,1)	(1,0)	(1,0)	(1,0)	(1,0)	(1,0)	(1,0)	(1,0)	
L1D -174>	(-202,4)	(4,1)	(1,6)	(65,1)	(62,1)	(71,1)	(175,1)	(230,1)	(144,1)	(174,3)	(176,1)	(6,2)	(100,1)	(-26,1)	(1,0)	(1,0)	
L1D -173>	(173,5)	(-1,5)	(276,1)	(-2,1)	(1,5)	(262,1)	(234,1)	(169,4)	(-51,1)	(1,0)	(1,0)	(1,0)	(1,0)	(1,0)	(1,0)	(1,0)	
L1D -172>	(2,5)	(8,3)	(176,28)	(4,6)	(-87,1)	(20,1)	(238,1)	(1,2)	(172,4)	(264,1)	(343,1)	(29,1)	(-1,1)	(26,2)	(0,1)	(86,5)	
L1D -171>	(-202,4)	(2,2)	(-30,1)	(-4,1)	(1,8)	(171,3)	(170,2)	(129,1)	(-1,3)	(39,1)	(163,1)	(19,2)	(36,1)	(107,1)	(1,0)	(1,0)	
L1D -170>	(-1,4)	(2,6)	(-202,2)	(-4,26)	(-30,15)	(1,11)	(170,16)	(171,4)	(4,2)	(128,1)	(102,1)	(94,1)	(169,42)	(0,1)	(173,1)	(259,1)	
L1D -169>	(-1,15)	(-108,1)	(328,1)	(-231,1)	(41,1)	(168,1)	(170,2)	(1,1)	(1,0)	(1,0)	(1,0)	(1,0)	(1,0)	(1,0)	(1,0)	(1,0)	
L1D -168>	(-202,3)	(172,4)	(4,7)	(259,1)	(18,1)	(2,3)	(188,1)	(42,1)	(52,1)	(168,1)	(183,1)	(1,3)	(-120,1)	(190,1)	(170,1)	(176,8)	
L1D -167>	(-202,9)	(144,3)	(1,67)	(122,10)	(3,2)	(2,1)	(161,1)	(42,1)	(44,2)	(-1,1)	(169,1)	(19,1)	(70,1)	(1,0)	(1,0)	(1,0)	
L1D -166>	(-202,2)	(1,8)	(30,1)	(4,1)	(167,2)	(69,1)	(102,1)	(252,1)	(53,1)	(168,1)	(317,1)	(-1,1)	(1,0)	(1,0)	(1,0)	(1,0)	
L1D -165>	(164,6)	(1,28)	(144,1)	(0,1)	(-256,1)	(186,1)	(298,1)	(167,1)	(-1,1)	(220,1)	(1,0)	(1,0)	(1,0)	(1,0)	(1,0)	(1,0)	
L1D -164>	(2,2)	(200,1)	(8,2)	(1,5)	(164,14)	(101,1)	(14,1)	(-132,1)	(363,1)	(146,3)	(57,1)	(-20,1)	(160,1)	(1,0)	(1,0)	(1,0)	
L1D -163>	(-202,1)	(4,2)	(24,1)	(1,2)	(144,1)	(1,0)	(1,0)	(1,0)	(1,0)	(1,0)	(1,0)	(1,0)	(1,0)	(1,0)	(1,0)	(1,0)	
L1D -162>	(2,4)	(-202,4)	(162,1)	(-185,1)	(-76,1)	(30,1)	(60,1)	(1,0)	(1,0)	(1,0)	(1,0)	(1,0)	(1,0)	(1,0)	(1,0)	(1,0)	
L1D -161>	(-202,1)	(1,4)	(160,7)	(68,1)	(-1,3)	(489,1)	(1,0)	(1,0)	(1,0)	(1,0)	(1,0)	(1,0)	(1,0)	(1,0)	(1,0)	(1,0)	
L1D -160>	(1,16)	(160,10)	(-1,3)	(161,1)	(-22,17)	(-113,1)	(235,2)	(240,1)	(113,1)	(-55,1)	(77,1)	(1,0)	(1,0)	(1,0)	(1,0)	(1,0)	
L1D -159>	(2,1)	(-202,2)	(4,1)	(-1,20)	(1,7)	(0,3)	(168,1)	(169,1)	(60,2)	(-337,1)	(161,1)	(113,1)	(160,1)	(40,1)	(1,0)	(1,0)	
L1D -158>	(-202,2)	(1,3)	(209,1)	(-272,1)	(-8,4)	(140,3)	(20,3)	(34,1)	(1,0)	(1,0)	(1,0)	(1,0)	(1,0)	(1,0)	(1,0)	(1,0)	
L1D -157>	(2,1)	(157,2)	(1,87)	(138,1)	(144,15)	(156,8)	(-176,6)	(408,1)	(153,3)	(1,0)	(1,0)	(1,0)	(1,0)	(1,0)	(1,0)	(1,0)	
L1D -156>	(1,30)	(144,3)	(-176,1)	(19,1)	(208,1)	(-192,1)	(129,1)	(114,1)	(302,1)	(-44,1)	(1,0)	(1,0)	(1,0)	(1,0)	(1,0)	(1,0)	
L1D -155>	(-202,10)	(8,3)	(1,2)	(1,0)	(1,0)	(1,0)	(1,0)	(1,0)	(1,0)	(1,0)	(1,0)	(1,0)	(1,0)	(1,0)	(1,0)	(1,0)	
L1D -154>	(2,1)	(-202,1)	(8,1)	(78,2)	(132,1)	(91,1)	(154,1)	(155,1)	(-1,2)	(112,1)	(-49,1)	(203,4)	(156,1)	(-42,1)	(50,1)	(1,0)	
L1D -153>	(1,9)	(-40,1)	(153,3)	(149,3)	(98,1)	(155,1)	(-1,3)	(1,0)	(1,0)	(1,0)	(1,0)	(1,0)	(1,0)	(1,0)	(1,0)	(1,0)	
L1D -152>	(1,5)	(-40,15)	(-1,1)	(43,1)	(154,2)	(419,1)	(-101,1)	(-71,1)	(133,1)	(182,1)	(1,0)	(1,0)	(1,0)	(1,0)	(1,0)	(1,0)	
L1D -151>	(-202,6)	(2,2)	(8,1)	(4,1)	(1,5)	(-200,1)	(-1,2)	(89,2)	(153,5)	(150,2)	(1,0)	(1,0)	(1,0)	(1,0)	(1,0)	(1,0)	
L1D -150>	(149,15)	(-202,1)	(2,1)	(-42,1)	(266,1)	(342,1)	(257,1)	(192,1)	(-1,1)	(150,1)	(414,1)	(152,1)	(151,2)	(237,1)	(1,0)	(1,0)	
L1D -149>	(150,1)	(87,1)	(-1,2)	(135,1)	(1,1)	(174,1)	(140,1)	(151,1)	(242,1)	(1,0)	(1,0)	(1,0)	(1,0)	(1,0)	(1,0)	(1,0)	
L1D -148>	(214,1)	(2,1)	(1,1)	(334,1)	(-235,1)	(-261,1)	(-110,1)	(51,1)	(149,1)	(150,1)	(1,0)	(1,0)	(1,0)	(1,0)	(1,0)	(1,0)	
L1D -147>	(-202,8)	(2,1)	(1,21)	(326,16)	(322,1)	(3,1)	(52,1)	(-1,1)	(147,1)	(106,4)	(149,1)	(4,1)	(152,2)	(1,0)	(1,0)	(1,0)	
L1D -146>	(145,1)	(-202,5)	(2,1)	(1,13)	(326,3)	(108,1)	(142,1)	(-1,2)	(148,1)	(-99,1)	(143,1)	(147,1)	(281,1)	(1,0)	(1,0)	(1,0)	
L1D -145>	(-1,2)	(1,2)	(1,0)	(1,0)	(1,0)	(1,0)	(1,0)	(1,0)	(1,0)	(1,0)	(1,0)	(1,0)	(1,0)	(1,0)	(1,0)	(1,0)	
L1D -144>	(365,1)	(48,123)	(49,1)	(151,1)	(198,1)	(-221,1)	(0,1)	(1,0)	(1,0)	(1,0)	(1,0)	(1,0)	(1,0)	(1,0)	(1,0)	(1,0)	
L1D -143>	(-6,1)	(-202,2)	(2,1)	(1,35)	(78,11)	(140,1)	(-1,1)	(166,1)	(98,1)	(150,1)	(1,0)	(1,0)	(1,0)	(1,0)	(1,0)	(1,0)	
L1D -142>	(-202,6)	(1,8)	(78,2)	(140,1)	(16,1)	(6,1)	(142,1)	(-1,1)	(-184,1)	(112,4)	(152,1)	(1,0)	(1,0)	(1,0)	(1,0)	(1,0)	
L1D -141>	(2,1)	(240,2)	(196,1)	(220,1)	(-1,2)	(1,3)	(166,1)	(61,1)	(-35,1)	(-124,1)	(-166,1)	(1,0)	(1,0)	(1,0)	(1,0)	(1,0)	
L1D -140>	(2,1)	(1,12)	(240,20)	(134,4)	(-200,1)	(275,1)	(121,1)	(46,1)	(70,1)	(140,1)	(158,3)	(105,1)	(0,1)	(88,1)	(1,0)	(1,0)	
L1D -139>	(2,6)	(-202,2)	(3,75)	(-68,1)	(1,2)	(140,5)	(138,1)	(-1,2)	(1,0)	(1,0)	(1,0)	(1,0)	(1,0)	(1,0)	(1,0)	(1,0)	
L1D -138>	(2,1)	(-202,1)	(139,39)	(71,1)	(80,4)	(-107,1)	(-152,1)	(138,2)	(104,1)	(1,0)	(1,0)	(1,0)	(1,0)	(1,0)	(1,0)	(1,0)	
L1D -137>	(-202,2)	(1,6)	(136,1)	(302,1)	(-1,4)	(-51,1)	(70,1)	(1,0)	(1,0)	(1,0)	(1,0)	(1,0)	(1,0)	(1,0)	(1,0)	(1,0)	
L1D -136>	(-202,3)	(127,1)	(130,2)	(1,1)	(136,3)	(-260,1)	(28,1)	(81,1)	(1,0)	(1,0)	(1,0)	(1,0)	(1,0)	(1,0)	(1,0)	(1,0)	
L1D -135>	(-202,4)	(2,3)	(16,4)	(136,5)	(129,6)	(1,6)	(134,2)	(161,1)	(1,0)	(1,0)	(1,0)	(1,0)	(1,0)	(1,0)	(1,0)	(1,0)	
L1D -134>	(-202,2)	(16,45)	(1,7)	(128,3)	(135,95)	(131,12)	(64,1)	(-75,1)	(0,2)	(134,1)	(201,1)	(277,1)	(-284,1)	(-134,1)	(104,1)	(-23,1)	
L1D -133>	(143,1)	(123,1)	(26,1)	(-1,2)	(-179,1)	(133,1)	(-169,1)	(-45,1)	(-17,1)	(-5,1)	(-62,1)	(1,3)	(-256,3)	(144,1)	(1,0)	(1,0)	
L1D -132>	(2,1)	(6,1)	(230,17)	(1,5)	(142,1)	(-124,1)	(-160,1)	(18,1)	(58,1)	(0,1)	(132,1)	(191,1)	(1,0)	(1,0)	(1,0)	(1,0)	
L1D -131>	(-202,4)	(2,1)	(1,20)	(141,4)	(144,1)	(140,5)	(126,4)	(-1,5)	(-2,1)	(1,0)	(1,0)	(1,0)	(1,0)	(1,0)	(1,0)	(1,0)	
L1D -130>	(124,5)	(-3,2)	(2,3)	(-202,3)	(46,1)	(1,4)	(127,6)	(140,12)	(130,2)	(-1,1)	(0,1)	(-60,1)	(-9,1)	(190,1)	(165,1)	(107,1)	
L1D -129>	(136,4)	(92,1)	(-1,4)	(1,3)	(175,1)	(-9,4)	(1,0)	(1,0)	(1,0)	(1,0)	(1,0)	(1,0)	(1,0)	(1,0)	(1,0)	(1,0)	
L1D -128>	(0,2)	(-202,3)	(8,1)	(5,25)	(17,2)	(135,8)	(33,1)	(80,1)	(-46,1)	(-3,2)	(-45,1)	(172,1)	(-82,1)	(-1,1)	(330,1)	(1,0)	
L1D -127>	(-194,4)	(3,1)	(-202,1)	(120,5)	(127,8)	(122,52)	(130,3)	(1,19)	(136,1)	(-1,3)	(-16,1)	(-187,1)	(2,2)	(128,1)	(1,0)	(1,0)	
L1D -126>	(-202,2)	(129,2)	(1,100)	(135,3)	(127,6)	(179,2)	(180,29)	(126,1)	(136,8)	(-147,3)	(-146,12)	(240,2)	(381,1)	(-278,1)	(-29,1)	(-1,2)	
L1D -125>	(-147,1)	(1,2)	(179,1)	(124,1)	(64,1)	(281,1)	(125,1)	(98,1)	(1,0)	(1,0)	(1,0)	(1,0)	(1,0)	(1,0)	(1,0)	(1,0)	
L1D -124>	(-192,2)	(4,2)	(2,3)	(20,1)	(-194,2)	(-1,3)	(1,31)	(-46,7)	(125,4)	(123,1)	(124,6)	(68,1)	(-183,1)	(191,1)	(258,1)	(1,0)	
L1D -123>	(2,1)	(-198,5)	(-202,3)	(1,13)	(7,1)	(140,2)	(-186,1)	(0,1)	(-48,1)	(125,1)	(124,1)	(1,0)	(1,0)	(1,0)	(1,0)	(1,0)	
L1D -122>	(-202,3)	(8,1)	(120,1)	(1,4)	(122,3)	(157,1)	(165,1)	(124,2)	(-28,1)	(-134,1)	(-108,1)	(66,1)	(123,1)	(357,1)	(-1,1)	(15,1)	
L1D -121>	(121,2)	(-202,1)	(4,1)	(135,44)	(1,3)	(-1,1)	(276,1)	(122,1)	(117,4)	(226,1)	(1,0)	(1,0)	(1,0)	(1,0)	(1,0)	(1,0)	
L1D -120>	(-196,3)	(4,6)	(-202,2)	(44,1)	(-201,1)	(8,27)	(-52,1)	(395,1)	(120,7)	(-150,1)	(121,1)	(-178,1)	(-1,1)	(1,1)	(274,1)	(188,1)	
L1D -119>	(119,5)	(2,2)	(-202,12)	(4,1)	(19,1)	(1,47)	(118,6)	(10,9)	(135,8)	(16,6)	(261,1)	(-310,1)	(-1,3)	(1,0)	(1,0)	(1,0)	
L1D -118>	(-202,3)	(2,1)	(1,17)	(16,1)	(28,1)	(-2,1)	(-1,1)	(-283,1)	(10,1)	(8,1)	(153,1)	(82,1)	(1,0)	(1,0)	(1,0)	(1,0)	
L1D -117>	(118,1)	(2,1)	(368,10)	(1,28)	(233,1)	(-1,4)	(346,1)	(117,1)	(119,1)	(79,1)	(81,1)	(1,0)	(1,0)	(1,0)	(1,0)	(1,0)	
L1D -116>	(-200,2)	(4,4)	(-3,1)	(-1,3)	(118,1)	(8,1)	(11,1)	(1,7)	(368,7)	(-2,2)	(116,1)	(24,1)	(140,1)	(357,1)	(120,1)	(241,1)	
L1D -115>	(0,2)	(106,1)	(-202,3)	(4,1)	(9,3)	(-7,38)	(20,9)	(1,5)	(-126,1)	(-5,1)	(115,1)	(264,1)	(-1,1)	(-100,1)	(7,4)	(1,0)	
L1D -114>	(-48,2)	(-202,3)	(2,3)	(114,3)	(17,4)	(19,3)	(7,47)	(24,1)	(-101,1)	(-1,1)	(-225,1)	(-28,1)	(1,4)	(-29,1)	(218,1)	(115,1)	
L1D -113>	(113,3)	(114,3)	(76,1)	(-344,1)	(-316,1)	(-288,1)	(-260,1)	(116,1)	(9,1)	(-21,1)	(378,1)	(253,1)	(112,1)	(-1,5)	(29,1)	(1,5)	
L1D -112>	(114,1)	(4,19)	(-10,1)	(8,11)	(116,1)	(112,1)	(122,1)	(-1,1)	(-3,1)	(16,1)	(400,1)	(402,1)	(1,2)	(415,1)	(1,0)	(1,0)	
L1D -111>	(111,9)	(-202,5)	(4,1)	(-19,47)	(0,10)	(-4,7)	(-1,92)	(-13,39)	(18,1)	(-3,2)	(-17,1)	(108,6)	(1,5)	(255,2)	(-77,1)	(-86,1)	
L1D -110>	(49,1)	(114,2)	(2,2)	(4,1)	(-202,1)	(-64,1)	(1,7)	(0,3)	(8,1)	(-3,2)	(108,21)	(80,16)	(188,1)	(-22,1)	(-2,1)	(-213,1)	
L1D -109>	(4,2)	(110,2)	(1,4)	(-8,1)	(2,5)	(-356,1)	(-332,1)	(-304,1)	(-74,1)	(-248,1)	(-1,4)	(-121,1)	(-295,1)	(-30,1)	(0,2)	(9,4)	
L1D -108>	(4,5)	(10,2)	(2,4)	(-51,1)	(-228,1)	(-208,3)	(8,8)	(-3,1)	(1,3)	(188,1)	(410,1)	(-318,1)	(166,1)	(122,1)	(42,1)	(354,1)	
L1D -107>	(-202,2)	(-208,1)	(4,3)	(8,1)	(9,9)	(96,1)	(3,1)	(-1,3)	(1,4)	(1,0)	(1,0)	(1,0)	(1,0)	(1,0)	(1,0)	(1,0)	
L1D -106>	(318,17)	(-208,4)	(2,4)	(0,37)	(8,19)	(107,4)	(-202,2)	(1,3)	(-209,5)	(-211,10)	(106,15)	(212,48)	(-106,21)	(-1,4)	(-5,5)	(-212,2)	
L1D -105>	(318,7)	(3,1)	(-138,1)	(-316,1)	(1,9)	(-58,1)	(-236,1)	(-6,1)	(-182,1)	(-158,1)	(-220,1)	(106,87)	(272,1)	(258,1)	(253,1)	(241,2)	
L1D -104>	(4,19)	(-76,1)	(2,2)	(-8,1)	(-1,1)	(8,2)	(104,1)	(78,1)	(77,1)	(1,2)	(-19,1)	(156,1)	(203,1)	(0,1)	(-177,1)	(-3,1)	
L1D -103>	(-202,2)	(4,8)	(8,1)	(9,40)	(-12,1)	(102,2)	(1,2)	(428,1)	(193,1)	(208,1)	(-3,1)	(2,1)	(1,0)	(1,0)	(1,0)	(1,0)	
L1D -102>	(1,4)	(2,2)	(106,1)	(-202,1)	(103,2)	(0,18)	(160,1)	(132,1)	(142,1)	(-3,1)	(-2,3)	(272,1)	(1,0)	(1,0)	(1,0)	(1,0)	
L1D -101>	(-140,4)	(-4,4)	(1,14)	(2,4)	(-2,1)	(-296,1)	(-244,1)	(-146,1)	(-288,1)	(-268,1)	(-41,1)	(-137,1)	(-109,1)	(-1,5)	(7,1)	(99,1)	
L1D -100>	(1,102)	(2,4)	(15,51)	(3,1)	(-6,5)	(9,4)	(-13,1)	(99,44)	(-2,3)	(-1,6)	(-140,25)	(25,1)	(268,1)	(-5,1)	(-238,1)	(100,1)	
L1D -99>	(99,13)	(-202,4)	(98,7)	(101,1)	(157,1)	(4,2)	(-106,3)	(8,1)	(15,45)	(-1,37)	(14,2)	(-66,6)	(-132,5)	(1,10)	(106,2)	(154,1)	
L1D -98>	(1,6)	(2,4)	(98,2)	(6,4)	(3,2)	(0,5)	(100,1)	(99,50)	(-383,1)	(-1,3)	(97,1)	(-6,2)	(-66,23)	(-132,13)	(-140,1)	(441,1)	
L1D -97>	(-1,4)	(98,8)	(99,1)	(100,1)	(-190,1)	(-280,1)	(-348,1)	(2,2)	(-74,1)	(-22,4)	(1,7)	(-216,1)	(0,4)	(-19,93)	(-17,1)	(22,1)	
L1D -96>	(-94,1)	(4,1)	(-4,0)	(-360,0)	(-332,0)	(2,0)	(-8,0)	(49,67)	(-1,2)	(96,1)	(1,2)	(-60,0)	(-166,0)	(-251,0)	(-312,0)	(-247,0)	
L1D -95>	(2,1)	(-202,2)	(4,4)	(-33,3)	(1,74)	(138,4)	(-176,14)	(3,1)	(-1,3)	(0,1)	(248,1)	(97,1)	(1,0)	(1,0)	(1,0)	(1,0)	
L1D -94>	(-202,3)	(2,7)	(0,2)	(95,1)	(4,1)	(1,19)	(97,1)	(11,32)	(-6,31)	(-17,6)	(-14,3)	(-27,1)	(13,1)	(157,1)	(94,1)	(70,1)	
L1D -93>	(-18,45)	(93,2)	(1,8)	(-1,3)	(95,1)	(-38,1)	(-236,1)	(-14,1)	(-6,1)	(-182,1)	(-367,1)	(2,1)	(-304,1)	(-252,1)	(-22,1)	(-35,22)	
L1D -92>	(9,0)	(94,0)	(1,28)	(224,0)	(0,0)	(86,0)	(83,0)	(-258,0)	(92,0)	(329,0)	(-280,0)	(-1,0)	(-2,0)	(66,0)	(82,79)	(24,0)	
L1D -91>	(-202,6)	(2,4)	(1,93)	(-136,1)	(4,2)	(8,5)	(11,2)	(3,9)	(-3,1)	(85,18)	(92,7)	(156,3)	(19,1)	(-1,3)	(100,1)	(93,2)	
L1D -90>	(87,1)	(2,2)	(-35,1)	(-121,1)	(-82,1)	(-202,1)	(-119,1)	(84,4)	(91,75)	(1,2)	(-10,1)	(17,1)	(-260,1)	(92,2)	(0,1)	(47,1)	
L1D -89>	(4,2)	(19,2)	(91,1)	(-166,1)	(-340,1)	(-114,1)	(-312,1)	(-86,1)	(3,2)	(-6,1)	(-182,1)	(-1,2)	(-356,1)	(-268,1)	(1,4)	(5,1)	
L1D -88>	(90,10)	(4,2)	(94,17)	(6,1)	(-130,1)	(12,1)	(149,1)	(22,1)	(-115,1)	(89,1)	(-225,1)	(8,4)	(-288,1)	(1,2)	(219,1)	(2,3)	
L1D -87>	(-10,1)	(-202,4)	(-2,1)	(4,1)	(8,1)	(87,1)	(1,8)	(-3,1)	(-192,1)	(-115,1)	(-1,2)	(77,20)	(3,7)	(173,4)	(89,2)	(83,1)	
L1D -86>	(-202,4)	(2,12)	(86,15)	(90,7)	(88,5)	(-37,1)	(-189,1)	(-73,1)	(74,4)	(1,18)	(-15,2)	(0,35)	(-14,6)	(83,8)	(-28,1)	(296,1)	
L1D -85>	(-4,2)	(2,4)	(248,1)	(-272,1)	(-244,1)	(-14,1)	(-1,28)	(1,11)	(0,51)	(-15,7)	(3,1)	(92,6)	(-181,1)	(74,1)	(15,9)	(4,1)	
L1D -84>	(2,12)	(1,6)	(74,4)	(84,6)	(-38,1)	(8,4)	(4,7)	(-17,28)	(-5,6)	(-2,3)	(-1,4)	(0,88)	(13,26)	(-16,9)	(91,10)	(-193,1)	
L1D -83>	(-202,4)	(19,20)	(1,9)	(4,4)	(-14,3)	(76,8)	(78,100)	(90,7)	(83,8)	(87,31)	(18,55)	(3,1)	(-1,2)	(-187,1)	(-212,1)	(86,3)	
L1D -82>	(2,8)	(252,1)	(4,4)	(0,6)	(74,1)	(83,1)	(-64,1)	(11,22)	(92,10)	(91,2)	(1,4)	(488,1)	(-224,1)	(-1,1)	(-138,1)	(82,1)	
L1D -81>	(83,1)	(1,3)	(-372,1)	(-114,1)	(-86,1)	(-236,1)	(-384,1)	(-98,1)	(-1,1)	(0,1)	(15,17)	(-197,1)	(10,1)	(1,0)	(1,0)	(1,0)	
L1D -80>	(88,1)	(20,0)	(4,0)	(39,0)	(-1,0)	(2,1)	(8,0)	(200,0)	(-422,0)	(-64,92)	(-326,0)	(22,0)	(1,0)	(1,0)	(1,0)	(1,0)	
L1D -79>	(39,0)	(1,11)	(322,0)	(-1,0)	(-78,1)	(78,1)	(156,1)	(10,0)	(286,0)	(-64,0)	(0,0)	(346,0)	(79,105)	(-105,0)	(2,0)	(1,0)	
L1D -78>	(-202,5)	(2,2)	(38,1)	(79,1)	(1,110)	(4,3)	(-64,9)	(76,2)	(0,4)	(78,3)	(156,1)	(-58,1)	(-148,1)	(-190,1)	(210,1)	(-22,1)	
L1D -77>	(1,25)	(-4,2)	(326,1)	(-276,1)	(2,4)	(-344,1)	(-260,1)	(-1,5)	(-6,1)	(91,81)	(32,1)	(76,10)	(0,3)	(66,1)	(83,9)	(11,1)	
L1D -76>	(79,1)	(5,1)	(1,4)	(76,2)	(77,1)	(254,1)	(-86,1)	(-112,1)	(196,1)	(124,2)	(112,1)	(-88,1)	(441,1)	(-59,1)	(1,0)	(1,0)	
L1D -75>	(-202,4)	(-187,1)	(1,4)	(19,1)	(4,1)	(8,1)	(91,9)	(73,2)	(-1,2)	(5,2)	(74,1)	(36,1)	(-86,1)	(1,0)	(1,0)	(1,0)	
L1D -74>	(2,5)	(-52,1)	(4,1)	(0,2)	(66,1)	(75,1)	(-177,1)	(-8,3)	(-11,5)	(-10,1)	(73,1)	(1,12)	(-44,1)	(60,1)	(-88,1)	(101,1)	
L1D -73>	(72,10)	(1,54)	(-180,1)	(-247,1)	(-344,1)	(-114,1)	(-90,1)	(-264,1)	(-236,1)	(-384,1)	(-162,1)	(-356,1)	(2,2)	(-304,1)	(-248,1)	(-26,1)	
L1D -72>	(8,1)	(4,1)	(-202,1)	(-94,1)	(1,17)	(72,4)	(6,4)	(-106,1)	(176,1)	(-231,1)	(-12,9)	(48,1)	(-270,1)	(1,0)	(1,0)	(1,0)	
L1D -71>	(-202,3)	(3,6)	(1,4)	(71,2)	(8,1)	(-11,23)	(-14,22)	(0,13)	(-13,6)	(-3,1)	(2,2)	(-200,1)	(-1,2)	(5,4)	(-10,1)	(70,15)	
L1D -70>	(70,12)	(2,8)	(83,13)	(-11,2)	(4,2)	(-82,1)	(-40,1)	(1,19)	(-109,1)	(0,4)	(50,1)	(5,2)	(6,6)	(9,1)	(85,1)	(-132,1)	
L1D -69>	(-1,36)	(0,42)	(-16,3)	(70,30)	(82,3)	(83,2)	(-6,2)	(-13,23)	(-5,1)	(1,111)	(250,8)	(160,1)	(-210,1)	(-218,1)	(-183,1)	(-314,1)	
L1D -68>	(4,2)	(1,15)	(82,11)	(66,1)	(-178,1)	(2,1)	(-288,1)	(250,3)	(118,1)	(68,1)	(-17,5)	(-24,5)	(-16,20)	(56,1)	(75,1)	(58,4)	
L1D -67>	(1,113)	(-202,3)	(71,1)	(3,5)	(2,8)	(230,3)	(-66,1)	(138,7)	(18,2)	(39,1)	(0,1)	(-1,3)	(315,1)	(56,1)	(-400,1)	(-209,1)	
L1D -66>	(-202,2)	(-5,8)	(2,18)	(56,1)	(58,1)	(1,43)	(-1,2)	(3,2)	(63,2)	(-66,28)	(230,23)	(138,1)	(38,19)	(39,7)	(-126,2)	(252,1)	
L1D -65>	(0,103)	(-14,15)	(69,17)	(1,91)	(-16,4)	(-10,1)	(-18,1)	(71,0)	(4,0)	(142,0)	(3,0)	(63,0)	(64,0)	(8,0)	(-1,1)	(56,0)	
L1D -64>	(5,2)	(-1,1)	(-90,0)	(-15,0)	(-110,0)	(-252,0)	(-202,0)	(32,92)	(122,0)	(-188,0)	(30,0)	(1,0)	(1,0)	(1,0)	(1,0)	(1,0)	
L1D -63>	(1,70)	(-1,2)	(4,2)	(3,10)	(6,9)	(5,1)	(8,2)	(2,1)	(-94,12)	(-180,1)	(-200,1)	(-290,1)	(106,4)	(160,1)	(1,0)	(1,0)	
L1D -62>	(2,3)	(-202,2)	(66,2)	(1,27)	(60,29)	(63,1)	(0,2)	(-88,1)	(62,8)	(59,6)	(312,1)	(216,1)	(-360,1)	(44,1)	(-219,1)	(-108,1)	
L1D -61>	(0,2)	(-4,2)	(-70,1)	(-312,1)	(-284,1)	(1,33)	(4,2)	(-157,1)	(-352,1)	(-122,1)	(-296,1)	(-220,1)	(-1,3)	(-248,16)	(158,1)	(436,1)	
L1D -60>	(2,1)	(1,15)	(52,0)	(57,0)	(0,1)	(244,0)	(5,0)	(-1,0)	(106,0)	(-220,1)	(140,0)	(8,1)	(104,0)	(-10,0)	(60,42)	(58,72)	
L1D -59>	(1,69)	(226,1)	(42,4)	(3,2)	(2,1)	(-1,5)	(60,2)	(0,1)	(-28,1)	(-52,1)	(52,1)	(143,1)	(1,0)	(1,0)	(1,0)	(1,0)	
L1D -58>	(2,10)	(57,127)	(-1,2)	(-112,1)	(0,1)	(59,1)	(-202,1)	(1,13)	(255,3)	(256,4)	(3,3)	(6,1)	(44,1)	(60,1)	(204,1)	(-52,1)	
L1D -57>	(1,95)	(76,16)	(255,6)	(256,4)	(62,2)	(52,30)	(2,6)	(61,33)	(0,2)	(-336,1)	(-256,1)	(-34,1)	(-26,1)	(58,1)	(-36,1)	(10,30)	
L1D -56>	(28,4)	(2,3)	(59,2)	(160,1)	(4,1)	(0,2)	(-36,4)	(-58,2)	(1,37)	(257,1)	(255,3)	(-53,1)	(-147,1)	(126,1)	(57,1)	(31,3)	
L1D -55>	(136,1)	(-2,1)	(33,1)	(256,1)	(8,112)	(1,11)	(67,1)	(-1,3)	(-12,2)	(0,1)	(98,1)	(102,1)	(1,0)	(1,0)	(1,0)	(1,0)	
L1D -54>	(-202,3)	(1,19)	(-20,1)	(2,3)	(0,4)	(55,1)	(58,1)	(4,9)	(3,2)	(54,9)	(336,1)	(13,7)	(206,1)	(88,1)	(186,1)	(1,0)	
L1D -53>	(-61,1)	(1,5)	(-26,1)	(-202,1)	(-1,8)	(-324,1)	(-74,1)	(-117,1)	(-4,1)	(54,4)	(4,2)	(2,1)	(-212,1)	(-219,1)	(79,4)	(16,1)	
L1D -52>	(-13,1)	(1,3)	(54,1)	(6,3)	(154,1)	(0,1)	(103,1)	(2,19)	(4,2)	(5,1)	(194,1)	(-389,1)	(149,1)	(-2,1)	(26,1)	(62,11)	
L1D -51>	(-202,1)	(2,4)	(4,3)	(-1,2)	(1,15)	(51,86)	(50,6)	(-66,1)	(-28,1)	(166,1)	(45,1)	(-60,1)	(1,0)	(1,0)	(1,0)	(1,0)	
L1D -50>	(47,28)	(51,14)	(2,1)	(4,1)	(0,2)	(42,1)	(9,4)	(1,8)	(50,20)	(306,1)	(222,1)	(258,1)	(216,1)	(-52,1)	(-160,1)	(126,1)	
L1D -49>	(138,6)	(48,2)	(1,23)	(0,17)	(30,1)	(-38,1)	(-190,1)	(-336,1)	(-114,1)	(-106,1)	(2,1)	(-256,1)	(-208,1)	(-4,1)	(4,3)	(8,8)	
L1D -48>	(52,3)	(100,1)	(9,1)	(182,0)	(1,0)	(0,1)	(20,0)	(4,0)	(7,0)	(138,0)	(36,0)	(-96,21)	(-144,123)	(48,0)	(117,0)	(-64,0)	
L1D -47>	(47,1)	(44,1)	(-1,4)	(-44,1)	(-7,73)	(178,1)	(3,3)	(-5,3)	(-4,4)	(6,33)	(1,4)	(2,1)	(1,0)	(1,0)	(1,0)	(1,0)	
L1D -46>	(178,0)	(33,0)	(1,2)	(-1,109)	(2,0)	(0,0)	(44,0)	(3,0)	(45,0)	(-15,0)	(8,0)	(344,0)	(-252,0)	(-114,0)	(-14,0)	(70,0)	
L1D -45>	(-40,124)	(25,11)	(-15,34)	(-17,26)	(2,1)	(-4,1)	(-44,1)	(0,1)	(62,1)	(-1,1)	(-248,0)	(-212,0)	(4,1)	(1,12)	(46,1)	(43,0)	
L1D -44>	(1,7)	(35,5)	(38,9)	(30,87)	(-3,19)	(31,98)	(-12,1)	(27,25)	(32,2)	(19,1)	(6,1)	(0,1)	(44,3)	(-116,1)	(64,1)	(8,9)	
L1D -43>	(17,21)	(19,2)	(28,11)	(43,1)	(-202,2)	(4,3)	(8,2)	(1,62)	(42,6)	(44,25)	(2,4)	(3,10)	(37,6)	(0,1)	(167,1)	(-283,1)	
L1D -42>	(-202,2)	(38,5)	(17,1)	(2,3)	(4,1)	(0,3)	(34,1)	(-48,1)	(42,33)	(1,25)	(-26,2)	(43,114)	(-117,1)	(168,1)	(122,1)	(-12,1)	
L1D -41>	(0,2)	(40,1)	(168,1)	(169,1)	(17,61)	(1,102)	(9,2)	(-1,1)	(-25,1)	(53,1)	(37,1)	(-26,1)	(1,0)	(1,0)	(1,0)	(1,0)	
L1D -40>	(28,94)	(34,21)	(5,4)	(12,11)	(10,13)	(42,55)	(40,3)	(-30,2)	(1,21)	(25,60)	(-208,34)	(13,2)	(23,5)	(19,123)	(20,1)	(-388,1)	
L1D -39>	(32,2)	(-1,8)	(31,19)	(26,8)	(42,3)	(30,7)	(12,1)	(171,1)	(9,1)	(2,13)	(8,68)	(55,1)	(1,118)	(3,9)	(172,1)	(402,1)	
L1D -38>	(34,2)	(-16,3)	(-1,5)	(1,13)	(6,7)	(32,6)	(5,1)	(36,27)	(38,33)	(-348,1)	(8,73)	(3,1)	(-376,17)	(-332,1)	(13,1)	(35,37)	
L1D -37>	(6,82)	(-10,49)	(24,27)	(-7,81)	(20,26)	(2,14)	(1,73)	(4,15)	(0,1)	(35,6)	(224,5)	(13,15)	(-1,5)	(36,11)	(44,3)	(17,5)	
L1D -36>	(5,20)	(65,13)	(32,2)	(8,2)	(38,68)	(9,3)	(36,67)	(1,12)	(-40,1)	(2,4)	(-1,8)	(0,1)	(10,1)	(43,1)	(180,0)	(37,0)	
L1D -35>	(190,1)	(2,9)	(8,53)	(26,6)	(5,11)	(3,10)	(31,14)	(1,66)	(30,7)	(-376,2)	(39,1)	(-1,4)	(9,2)	(27,25)	(12,3)	(35,12)	
L1D -34>	(-276,8)	(30,6)	(2,6)	(33,7)	(36,1)	(43,7)	(-66,9)	(44,55)	(-8,2)	(-80,2)	(1,29)	(7,4)	(8,116)	(34,23)	(-376,49)	(17,6)	
L1D -33>	(4,6)	(34,2)	(214,1)	(-9,7)	(27,3)	(8,115)	(1,50)	(-4,21)	(-7,44)	(33,27)	(13,3)	(-5,10)	(-1,10)	(-341,3)	(-216,2)	(32,4)	
L1D -32>	(-260,0)	(-7,6)	(5,1)	(-78,0)	(13,3)	(12,0)	(15,105)	(27,1)	(29,0)	(26,0)	(2,2)	(32,1)	(8,0)	(-1,1)	(7,1)	(1,3)	
L1D -31>	(33,5)	(3,3)	(28,2)	(8,5)	(125,1)	(1,50)	(30,1)	(13,1)	(6,8)	(-299,1)	(-1,6)	(2,3)	(286,1)	(7,2)	(-7,94)	(-4,1)	
L1D -30>	(6,21)	(22,9)	(42,22)	(38,24)	(3,5)	(13,1)	(-7,12)	(1,19)	(138,3)	(47,3)	(17,3)	(-4,8)	(-8,7)	(5,119)	(252,4)	(4,11)	
L1D -29>	(19,18)	(12,1)	(-16,3)	(8,105)	(9,1)	(24,2)	(4,1)	(27,2)	(0,1)	(-1,4)	(-5,3)	(43,1)	(30,11)	(10,1)	(1,6)	(2,4)	
L1D -28>	(34,3)	(14,1)	(-7,97)	(15,1)	(30,114)	(-16,0)	(216,1)	(13,1)	(28,1)	(1,2)	(138,1)	(4,4)	(20,0)	(-2,2)	(27,1)	(33,17)	
L1D -27>	(25,3)	(0,4)	(53,1)	(28,10)	(8,2)	(-1,7)	(27,5)	(10,1)	(-4,1)	(20,2)	(16,6)	(-8,1)	(26,1)	(2,2)	(3,2)	(1,96)	
L1D -26>	(1,7)	(49,0)	(7,0)	(27,3)	(21,16)	(-1,0)	(26,65)	(-31,0)	(15,0)	(-378,0)	(14,0)	(-7,0)	(0,0)	(-2,0)	(16,0)	(-4,0)	
L1D -25>	(1,20)	(47,0)	(41,0)	(-133,0)	(210,0)	(6,4)	(-1,95)	(10,0)	(94,0)	(8,0)	(181,0)	(-388,0)	(23,9)	(0,0)	(25,13)	(-252,0)	
L1D -24>	(13,48)	(5,1)	(82,1)	(-376,0)	(2,1)	(172,0)	(4,60)	(24,1)	(12,0)	(18,0)	(1,96)	(123,0)	(6,0)	(0,1)	(255,0)	(-30,0)	
L1D -23>	(107,6)	(16,13)	(5,40)	(33,62)	(14,51)	(0,1)	(-11,5)	(12,25)	(1,124)	(24,3)	(25,6)	(2,9)	(21,9)	(6,6)	(22,25)	(7,13)	
L1D -22>	(0,83)	(7,3)	(-33,2)	(14,6)	(2,3)	(-254,1)	(1,61)	(259,0)	(-15,6)	(-17,69)	(21,0)	(110,0)	(310,0)	(-296,0)	(16,2)	(22,0)	
L1D -21>	(18,15)	(7,21)	(-7,4)	(8,4)	(-26,57)	(-34,84)	(-20,109)	(1,67)	(-56,5)	(16,10)	(20,1)	(6,81)	(-40,3)	(5,12)	(9,6)	(-1,3)	
L1D -20>	(-38,1)	(6,2)	(4,1)	(16,7)	(11,73)	(1,119)	(25,31)	(-23,1)	(40,1)	(20,13)	(17,3)	(12,0)	(92,0)	(-4,0)	(0,65)	(21,1)	
L1D -19>	(11,0)	(27,0)	(4,0)	(20,2)	(1,30)	(18,0)	(8,66)	(3,1)	(2,3)	(24,18)	(23,4)	(77,0)	(-5,0)	(19,0)	(25,5)	(5,0)	
L1D -18>	(92,4)	(1,100)	(4,3)	(-9,1)	(2,110)	(87,2)	(47,1)	(5,1)	(25,2)	(-46,1)	(-390,0)	(18,1)	(-3,0)	(-66,0)	(337,0)	(156,0)	
L1D -17>	(1,10)	(17,85)	(8,4)	(10,24)	(5,39)	(33,30)	(3,1)	(2,8)	(11,10)	(25,2)	(16,8)	(13,16)	(76,16)	(4,7)	(39,57)	(18,7)	
L1D -16>	(16,10)	(15,17)	(18,4)	(1,2)	(14,2)	(74,32)	(20,30)	(9,3)	(-25,1)	(76,2)	(84,82)	(10,27)	(12,1)	(2,3)	(30,4)	(21,5)	
L1D -15>	(9,3)	(-2,0)	(15,1)	(-18,0)	(17,5)	(13,65)	(1,20)	(8,22)	(191,0)	(-25,0)	(11,8)	(48,0)	(-6,1)	(2,0)	(3,2)	(0,0)	
L1D -14>	(-7,3)	(1,26)	(16,4)	(-4,3)	(0,14)	(2,69)	(8,53)	(-27,6)	(4,1)	(74,5)	(10,1)	(11,11)	(9,7)	(-16,3)	(-10,1)	(13,21)	
L1D -13>	(0,98)	(7,5)	(-70,6)	(-1,88)	(-4,9)	(-71,4)	(-16,3)	(1,101)	(-5,111)	(74,7)	(9,39)	(10,1)	(14,3)	(-17,63)	(11,11)	(2,35)	
L1D -12>	(23,3)	(82,1)	(-16,1)	(3,1)	(5,0)	(0,16)	(-5,20)	(12,61)	(74,6)	(14,18)	(-1,100)	(1,91)	(2,30)	(9,7)	(8,1)	(4,1)	
L1D -11>	(18,20)	(2,116)	(-16,44)	(5,10)	(8,23)	(-12,8)	(0,40)	(81,1)	(16,3)	(117,3)	(-13,59)	(11,46)	(-1,6)	(6,93)	(9,2)	(1,92)	
L1D -10>	(1,24)	(-46,4)	(81,1)	(3,17)	(75,2)	(191,1)	(-98,0)	(17,10)	(-28,61)	(8,1)	(2,4)	(9,0)	(12,1)	(-10,0)	(15,5)	(6,87)	
L1D -9>	(2,7)	(10,117)	(1,77)	(-5,62)	(15,16)	(9,10)	(-14,7)	(18,17)	(74,14)	(-7,2)	(-10,47)	(0,2)	(-11,5)	(4,25)	(3,42)	(-3,9)	
L1D -8>	(2,45)	(-1,1)	(9,6)	(13,29)	(0,8)	(4,15)	(-4,44)	(-5,16)	(16,5)	(10,14)	(26,40)	(23,7)	(-8,51)	(15,72)	(1,11)	(20,8)	
L1D -7>	(4,1)	(14,28)	(-4,1)	(7,55)	(8,3)	(40,57)	(-52,1)	(-1,2)	(82,1)	(-12,84)	(10,33)	(1,9)	(13,15)	(27,3)	(6,19)	(16,2)	
L1D -6>	(13,2)	(-1,0)	(5,4)	(7,17)	(-11,2)	(-13,1)	(2,1)	(10,7)	(-9,4)	(1,24)	(-3,10)	(6,120)	(-5,0)	(3,0)	(8,1)	(0,25)	
L1D -5>	(10,5)	(-4,9)	(-5,15)	(-10,6)	(1,29)	(6,16)	(4,14)	(9,7)	(-1,54)	(0,6)	(2,20)	(75,9)	(7,2)	(3,62)	(-7,7)	(14,68)	
L1D -4>	(2,12)	(-2,31)	(-12,2)	(8,2)	(-4,4)	(5,11)	(10,7)	(1,66)	(-65,14)	(4,87)	(-1,1)	(-15,2)	(-5,5)	(-16,3)	(3,3)	(7,7)	
L1D -3>	(74,3)	(73,1)	(-3,15)	(-2,3)	(2,30)	(7,23)	(-28,26)	(-20,1)	(-92,14)	(4,54)	(1,75)	(-4,1)	(5,17)	(-11,12)	(8,6)	(-1,1)	
L1D -2>	(-60,2)	(1,11)	(13,2)	(62,1)	(15,1)	(2,101)	(6,5)	(-1,4)	(-58,2)	(3,10)	(-5,1)	(4,11)	(-2,8)	(16,1)	(0,10)	(5,1)	
L1D -1>	(4,2)	(-11,9)	(2,11)	(-31,2)	(0,18)	(6,1)	(-3,17)	(-12,1)	(26,15)	(3,2)	(1,87)	(-5,4)	(-8,2)	(19,4)	(-2,6)	(-1,3)	
L1D 0>	(0,104)	(4,1)	(-26,4)	(9,2)	(1,30)	(2,2)	(-14,1)	(7,2)	(-25,10)	(-272,11)	(-2,3)	(-29,0)	(5,2)	(11,2)	(-8,0)	(-1,3)	
L1D 1>	(1,80)	(24,5)	(-15,9)	(-1,50)	(-3,2)	(6,1)	(33,9)	(-7,2)	(-17,2)	(3,3)	(-12,1)	(51,9)	(0,13)	(445,1)	(19,9)	(-2,12)	
L1D 2>	(-1,26)	(-5,5)	(5,8)	(-3,13)	(0,10)	(-20,11)	(-16,1)	(-2,80)	(16,3)	(-63,1)	(1,7)	(-4,4)	(2,43)	(-10,6)	(-83,1)	(6,1)	
L1D 3>	(1,65)	(-7,26)	(-3,33)	(-1,7)	(4,10)	(0,4)	(-6,37)	(72,20)	(14,1)	(3,66)	(-15,10)	(-5,12)	(-4,15)	(-2,14)	(2,4)	(-29,3)	
L1D 4>	(-2,3)	(6,11)	(71,8)	(8,3)	(20,43)	(4,8)	(-4,70)	(2,5)	(1,77)	(-5,52)	(-13,3)	(-3,114)	(0,1)	(-8,10)	(3,7)	(-1,70)	
L1D 5>	(-17,16)	(-7,4)	(2,5)	(-25,32)	(-16,1)	(9,3)	(3,46)	(1,106)	(-10,15)	(-1,5)	(-3,33)	(-11,9)	(62,18)	(-8,5)	(0,76)	(-2,2)	
L1D 6>	(7,7)	(75,3)	(2,17)	(-6,69)	(-81,5)	(-83,13)	(-2,4)	(0,56)	(-4,6)	(-17,7)	(20,5)	(45,1)	(4,12)	(-5,3)	(1,73)	(-65,88)	
L1D 7>	(-4,10)	(15,4)	(-3,48)	(-16,21)	(5,10)	(-11,13)	(2,16)	(0,4)	(-7,87)	(1,62)	(-17,8)	(6,123)	(-8,3)	(3,10)	(-6,13)	(-9,4)	
L1D 8>	(12,7)	(7,10)	(-7,41)	(-1,8)	(-3,40)	(4,36)	(6,27)	(-5,4)	(-17,12)	(-16,82)	(3,1)	(-2,4)	(8,75)	(1,5)	(5,110)	(-28,11)	
L1D 9>	(-2,17)	(-12,6)	(1,51)	(-20,3)	(-5,9)	(-26,9)	(-1,8)	(-16,9)	(-6,108)	(0,1)	(-9,1)	(-17,8)	(-3,3)	(5,10)	(-21,2)	(2,1)	
L1D 10>	(0,1)	(-4,74)	(-2,107)	(-1,24)	(11,4)	(-6,8)	(6,9)	(-3,48)	(-7,95)	(4,9)	(1,79)	(-62,19)	(-13,22)	(-17,21)	(16,5)	(3,28)	
L1D 11>	(-11,47)	(-9,13)	(0,9)	(2,14)	(-22,3)	(-10,11)	(-1,52)	(-17,1)	(6,9)	(1,83)	(-7,5)	(8,9)	(-3,92)	(-13,3)	(-5,2)	(-32,114)	
L1D 12>	(0,7)	(-12,106)	(4,3)	(-16,4)	(1,5)	(-1,82)	(-13,2)	(-8,10)	(108,1)	(-4,23)	(-20,45)	(-5,8)	(11,1)	(-14,15)	(-11,1)	(3,1)	
L1D 13>	(-3,7)	(-11,4)	(62,1)	(-13,43)	(-12,0)	(2,3)	(-20,2)	(106,0)	(6,2)	(1,16)	(-99,0)	(3,17)	(-5,68)	(5,0)	(-32,20)	(-30,40)	
L1D 14>	(-8,4)	(-13,18)	(-2,1)	(-6,72)	(-9,3)	(-14,2)	(-12,2)	(-117,1)	(68,7)	(58,20)	(-16,116)	(-5,6)	(-40,1)	(12,1)	(-3,17)	(-10,1)	
L1D 15>	(-16,5)	(-43,1)	(-2,5)	(-23,2)	(2,70)	(-12,28)	(-14,2)	(-20,126)	(-5,74)	(1,9)	(58,5)	(60,3)	(-3,46)	(-378,1)	(-1,2)	(9,1)	
L1D 16>	(-15,15)	(-14,5)	(-11,58)	(-41,3)	(-4,96)	(-24,73)	(2,47)	(-6,8)	(5,38)	(8,36)	(4,5)	(60,1)	(-5,50)	(14,36)	(3,2)	(-16,4)	
L1D 17>	(-17,89)	(1,17)	(-15,0)	(-3,43)	(16,6)	(0,40)	(-2,6)	(2,11)	(6,37)	(14,5)	(-1,7)	(-40,0)	(-46,0)	(-18,0)	(-13,0)	(-16,40)	
L1D 18>	(-10,5)	(85,3)	(-24,9)	(-5,64)	(1,29)	(-18,4)	(-6,12)	(0,3)	(58,18)	(-43,18)	(69,25)	(-3,6)	(-16,33)	(-17,27)	(34,1)	(-26,108)	
L1D 19>	(1,120)	(-13,1)	(-4,2)	(-18,1)	(-17,2)	(-5,22)	(-6,0)	(-20,71)	(0,3)	(-19,45)	(-10,1)	(-1,2)	(6,11)	(4,5)	(-8,0)	(-2,3)	
L1D 20>	(-124,1)	(-26,58)	(-3,31)	(-9,3)	(20,116)	(-140,0)	(0,1)	(-20,57)	(-14,0)	(-2,0)	(3,1)	(-41,0)	(115,0)	(-16,0)	(10,0)	(1,0)	
L1D 21>	(2,89)	(-28,2)	(-10,2)	(6,3)	(-26,2)	(-13,2)	(-17,1)	(-36,4)	(-8,0)	(-15,1)	(14,1)	(1,4)	(-1,0)	(-27,0)	(3,37)	(9,2)	
L1D 22>	(-28,1)	(1,3)	(0,4)	(6,1)	(-17,1)	(-9,1)	(-138,1)	(2,37)	(-60,1)	(16,93)	(110,1)	(-20,1)	(-22,2)	(-2,17)	(10,4)	(-6,2)	
L1D 23>	(-32,1)	(-3,28)	(112,1)	(-1,1)	(-23,4)	(13,54)	(-11,18)	(-38,2)	(7,1)	(-22,1)	(-27,1)	(5,1)	(9,0)	(-2,91)	(1,4)	(2,2)	
L1D 24>	(58,0)	(-7,0)	(-20,0)	(-24,1)	(-422,0)	(-3,0)	(14,1)	(1,3)	(-53,0)	(-94,0)	(-82,0)	(-8,9)	(100,0)	(-16,1)	(-2,0)	(-19,108)	
L1D 25>	(-9,2)	(-30,0)	(-3,0)	(-57,0)	(-1,0)	(-25,14)	(11,2)	(0,23)	(-2,13)	(-55,10)	(-47,9)	(-16,1)	(-41,25)	(1,3)	(-24,69)	(-26,0)	
L1D 26>	(-5,9)	(-8,0)	(7,1)	(-13,0)	(1,0)	(0,121)	(-18,0)	(4,0)	(2,0)	(-41,0)	(-30,2)	(-27,0)	(-24,48)	(38,0)	(-26,2)	(70,0)	
L1D 27>	(0,47)	(-11,31)	(4,31)	(-26,12)	(8,25)	(-12,1)	(-30,23)	(-7,5)	(3,2)	(1,7)	(13,19)	(6,25)	(-28,14)	(-1,7)	(5,2)	(2,9)	
L1D 28>	(2,5)	(10,18)	(-13,86)	(3,3)	(28,4)	(-29,4)	(148,1)	(-16,4)	(-20,6)	(-12,51)	(-27,8)	(-1,6)	(1,5)	(-28,5)	(0,2)	(-10,8)	
L1D 29>	(18,1)	(-121,2)	(-24,1)	(-16,1)	(6,1)	(-2,9)	(-14,40)	(-30,5)	(-10,3)	(-18,1)	(1,88)	(3,6)	(-4,2)	(-28,2)	(268,1)	(-26,1)	
L1D 30>	(-2,3)	(8,6)	(-27,2)	(-4,7)	(12,2)	(2,84)	(17,0)	(-23,2)	(6,0)	(-32,0)	(84,1)	(-28,2)	(-29,2)	(-3,3)	(1,2)	(-30,1)	
L1D 31>	(-10,44)	(-32,11)	(-1,90)	(6,6)	(-5,117)	(8,11)	(12,10)	(-4,12)	(-29,8)	(1,21)	(-34,12)	(-61,1)	(-33,2)	(-12,2)	(-14,2)	(-25,18)	
L1D 32>	(-12,1)	(-171,1)	(34,1)	(113,74)	(-253,2)	(-42,1)	(-224,0)	(-19,8)	(-110,0)	(12,0)	(8,0)	(0,1)	(85,0)	(1,0)	(-1,0)	(-35,0)	
L1D 33>	(1,18)	(-48,0)	(-17,5)	(-47,9)	(-44,9)	(-37,2)	(-41,23)	(-38,6)	(-33,9)	(-18,87)	(-6,1)	(396,0)	(-32,0)	(-1,1)	(-24,29)	(-12,23)	
L1D 34>	(-4,63)	(-39,24)	(-29,51)	(1,65)	(170,12)	(-30,17)	(-1,19)	(2,23)	(-6,52)	(396,37)	(-28,1)	(-37,8)	(-321,3)	(-34,37)	(-33,5)	(3,7)	
L1D 35>	(-34,76)	(-47,4)	(4,47)	(-44,5)	(-16,13)	(-29,7)	(-17,4)	(13,22)	(9,6)	(1,28)	(0,8)	(-35,5)	(-37,7)	(2,4)	(-1,2)	(-36,8)	
L1D 36>	(4,4)	(2,81)	(-38,1)	(-134,1)	(-37,1)	(-36,48)	(1,20)	(-35,1)	(-118,1)	(-228,1)	(-342,0)	(-171,0)	(62,0)	(-8,0)	(-244,0)	(1,0)	
L1D 37>	(3,2)	(298,1)	(-4,4)	(-3,7)	(-36,5)	(-31,3)	(-11,1)	(-1,5)	(1,39)	(-276,4)	(7,6)	(-30,3)	(60,2)	(436,2)	(-38,1)	(0,1)	
L1D 38>	(4,40)	(-28,2)	(0,1)	(-56,4)	(-35,1)	(-2,98)	(18,1)	(-1,1)	(276,1)	(-3,4)	(-276,8)	(-275,0)	(1,5)	(7,0)	(-4,14)	(-30,7)	
L1D 39>	(-179,1)	(-35,0)	(-1,2)	(122,0)	(-54,0)	(-22,109)	(-28,0)	(1,0)	(18,0)	(1,0)	(1,0)	(1,0)	(1,0)	(1,0)	(1,0)	(1,0)	
L1D 40>	(2,2)	(20,1)	(-41,1)	(-33,8)	(-34,2)	(-8,1)	(16,1)	(73,1)	(1,1)	(-40,2)	(80,1)	(-1,2)	(0,1)	(-14,0)	(-13,31)	(-12,120)	
L1D 41>	(-181,4)	(3,6)	(2,8)	(-35,103)	(-8,2)	(-40,4)	(-6,41)	(1,53)	(4,14)	(6,20)	(136,1)	(-2,6)	(-42,2)	(-1,3)	(127,1)	(-171,1)	
L1D 42>	(-9,12)	(72,12)	(-41,6)	(1,28)	(-39,108)	(-3,48)	(-36,35)	(213,4)	(-4,76)	(-13,12)	(-2,66)	(-37,20)	(-42,35)	(-32,8)	(-330,37)	(4,5)	
L1D 43>	(-6,9)	(0,3)	(-40,3)	(-42,2)	(1,84)	(-1,5)	(-44,2)	(-30,1)	(-2,2)	(1,0)	(1,0)	(1,0)	(1,0)	(1,0)	(1,0)	(1,0)	
L1D 44>	(4,6)	(-28,1)	(-46,2)	(-12,24)	(-42,92)	(-9,2)	(1,6)	(-6,7)	(-8,1)	(-10,1)	(-110,1)	(-44,3)	(51,1)	(-52,1)	(285,1)	(-1,1)	
L1D 45>	(-44,1)	(1,20)	(124,2)	(-134,1)	(-46,1)	(-68,8)	(-310,1)	(46,3)	(48,5)	(-1,1)	(-85,4)	(-429,1)	(49,1)	(-476,1)	(-322,1)	(-2,1)	
L1D 46>	(4,4)	(1,16)	(48,3)	(32,1)	(-246,1)	(-49,2)	(-116,1)	(-44,2)	(-321,2)	(-45,4)	(-8,4)	(84,1)	(-34,2)	(-274,1)	(-1,4)	(-16,1)	
L1D 47>	(2,2)	(-19,24)	(-47,2)	(-37,2)	(-9,17)	(-1,8)	(-46,2)	(136,1)	(3,1)	(-7,1)	(273,1)	(1,11)	(132,1)	(-303,1)	(46,5)	(-56,3)	
L1D 48>	(-1,1)	(46,5)	(-104,0)	(4,0)	(-50,0)	(-2,0)	(1,9)	(-58,0)	(49,126)	(-192,14)	(337,3)	(39,0)	(-144,1)	(-48,0)	(1,0)	(1,0)	
L1D 49>	(-284,1)	(-6,1)	(-159,0)	(3,0)	(-4,0)	(-254,0)	(-50,0)	(-34,0)	(-49,1)	(144,78)	(1,0)	(1,0)	(1,0)	(1,0)	(1,0)	(1,0)	
L1D 50>	(144,1)	(4,5)	(6,2)	(2,1)	(48,1)	(-49,1)	(-53,1)	(-48,1)	(-321,2)	(-50,16)	(92,1)	(-38,32)	(-4,50)	(1,26)	(-1,2)	(-132,1)	
L1D 51>	(59,0)	(-45,97)	(-50,0)	(-1,2)	(-135,0)	(1,0)	(-51,10)	(1,0)	(1,0)	(1,0)	(1,0)	(1,0)	(1,0)	(1,0)	(1,0)	(1,0)	
L1D 52>	(-228,1)	(4,5)	(-54,2)	(-220,1)	(-12,4)	(-48,1)	(222,1)	(58,1)	(14,4)	(1,1)	(-151,4)	(10,26)	(9,9)	(-154,4)	(-4,1)	(-53,1)	
L1D 53>	(2,12)	(6,5)	(4,6)	(5,4)	(3,4)	(7,4)	(8,1)	(1,61)	(-54,6)	(-1,2)	(136,1)	(0,1)	(-2,3)	(-78,1)	(-193,1)	(-312,1)	
L1D 54>	(-254,2)	(4,7)	(-53,4)	(-321,2)	(-52,2)	(-130,1)	(-58,1)	(-26,1)	(170,1)	(1,5)	(-54,16)	(-8,1)	(-1,1)	(14,1)	(251,1)	(0,1)	
L1D 55>	(-7,1)	(-53,1)	(-2,3)	(-28,2)	(-20,1)	(-166,1)	(-56,1)	(0,1)	(1,1)	(-122,1)	(-36,3)	(4,1)	(-1,2)	(1,0)	(1,0)	(1,0)	
L1D 56>	(6,2)	(2,5)	(66,1)	(-58,1)	(4,28)	(-2,23)	(-28,19)	(1,6)	(-1,3)	(170,1)	(-27,1)	(-382,1)	(-10,1)	(14,1)	(1,0)	(1,0)	
L1D 57>	(-1,6)	(2,2)	(7,1)	(1,5)	(140,1)	(0,1)	(66,1)	(-5,45)	(4,78)	(5,2)	(-57,2)	(1,0)	(1,0)	(1,0)	(1,0)	(1,0)	
L1D 58>	(4,1)	(2,1)	(-1,72)	(-77,4)	(6,49)	(-56,1)	(-58,1)	(-321,1)	(-46,3)	(1,1)	(-158,0)	(-13,0)	(88,0)	(-282,0)	(-59,0)	(-73,0)	
L1D 59>	(-321,2)	(-57,1)	(0,1)	(1,38)	(272,6)	(78,1)	(-21,6)	(-59,1)	(-60,1)	(-1,1)	(-142,1)	(152,1)	(-211,1)	(-340,1)	(1,0)	(1,0)	
L1D 60>	(4,20)	(-2,30)	(-62,2)	(6,60)	(-65,1)	(1,11)	(0,3)	(-18,1)	(-70,5)	(-6,1)	(-60,88)	(-1,1)	(-162,1)	(53,1)	(-288,1)	(54,1)	
L1D 61>	(0,1)	(-1,9)	(-16,1)	(-37,1)	(4,2)	(2,12)	(6,6)	(5,1)	(1,89)	(3,3)	(9,1)	(-341,1)	(73,1)	(-124,1)	(-5,34)	(-39,1)	
L1D 62>	(4,6)	(-2,11)	(6,79)	(-64,3)	(-97,1)	(-62,7)	(-60,1)	(1,13)	(2,15)	(-65,5)	(3,4)	(-3,1)	(0,3)	(-34,1)	(72,1)	(73,1)	
L1D 63>	(4,1)	(1,55)	(-142,8)	(-65,8)	(2,10)	(-64,22)	(120,1)	(-1,2)	(0,1)	(-6,2)	(-61,1)	(1,0)	(1,0)	(1,0)	(1,0)	(1,0)	
L1D 64>	(6,3)	(2,7)	(11,1)	(-66,1)	(4,20)	(-104,8)	(-108,3)	(-112,4)	(1,23)	(-96,1)	(187,1)	(48,1)	(72,1)	(131,1)	(-173,1)	(228,1)	
L1D 65>	(-23,26)	(4,1)	(1,7)	(-1,2)	(55,1)	(229,1)	(6,50)	(-88,1)	(1,0)	(1,0)	(1,0)	(1,0)	(1,0)	(1,0)	(1,0)	(1,0)	
L1D 66>	(6,3)	(2,4)	(4,2)	(-64,2)	(-65,2)	(-66,2)	(-321,1)	(-68,1)	(1,2)	(80,1)	(104,1)	(0,1)	(-288,1)	(-174,1)	(-1,2)	(-106,1)	
L1D 67>	(-321,1)	(-18,7)	(1,5)	(4,2)	(6,1)	(2,1)	(-44,1)	(-1,2)	(173,1)	(-46,1)	(1,0)	(1,0)	(1,0)	(1,0)	(1,0)	(1,0)	
L1D 68>	(2,4)	(4,10)	(-70,2)	(9,3)	(-18,39)	(-84,4)	(1,5)	(-87,9)	(-92,6)	(13,7)	(-74,1)	(-71,3)	(164,1)	(-216,1)	(-32,1)	(-72,9)	
L1D 69>	(2,1)	(1,19)	(-1,3)	(-186,1)	(-135,1)	(-70,2)	(-482,1)	(-69,79)	(-85,7)	(-68,1)	(0,1)	(-56,1)	(70,4)	(182,1)	(-168,1)	(1,0)	
L1D 70>	(4,6)	(-68,11)	(13,40)	(14,2)	(-69,5)	(-70,2)	(70,7)	(-308,1)	(-126,1)	(2,2)	(64,1)	(-47,1)	(1,12)	(-224,1)	(-1,3)	(-170,1)	
L1D 71>	(70,1)	(4,1)	(-84,29)	(-74,1)	(1,70)	(-56,11)	(-92,38)	(0,7)	(-72,11)	(-31,1)	(-1,5)	(-174,1)	(2,3)	(-62,1)	(-68,1)	(13,2)	
L1D 72>	(6,1)	(-92,64)	(-77,0)	(72,0)	(2,1)	(4,3)	(-112,1)	(-104,0)	(1,14)	(-2,0)	(-73,0)	(48,0)	(-260,0)	(-259,0)	(-262,0)	(-130,0)	
L1D 73>	(204,13)	(1,24)	(-100,1)	(3,1)	(-12,1)	(-57,1)	(2,1)	(-1,6)	(-327,1)	(-92,3)	(224,1)	(4,3)	(0,1)	(-30,1)	(1,0)	(1,0)	
L1D 74>	(-71,27)	(-69,12)	(2,1)	(-82,2)	(4,2)	(1,6)	(6,87)	(204,2)	(-74,1)	(-2,1)	(10,49)	(-92,9)	(-274,0)	(84,0)	(9,2)	(-84,0)	
L1D 75>	(-68,4)	(-73,1)	(114,6)	(1,113)	(-20,25)	(-166,6)	(-30,1)	(-76,4)	(-10,1)	(3,4)	(264,1)	(-1,4)	(0,1)	(-159,1)	(-92,82)	(6,20)	
L1D 76>	(4,5)	(-78,2)	(2,2)	(-60,2)	(-100,1)	(-112,1)	(1,42)	(-75,8)	(16,2)	(49,1)	(-76,1)	(68,1)	(69,1)	(-64,4)	(6,52)	(-212,1)	
L1D 77>	(-3,50)	(1,58)	(64,1)	(-78,13)	(0,7)	(-1,5)	(72,1)	(-293,1)	(6,20)	(10,4)	(-92,2)	(-82,1)	(-122,1)	(1,0)	(1,0)	(1,0)	
L1D 78>	(4,4)	(-77,86)	(-54,1)	(-78,2)	(-321,1)	(6,1)	(2,1)	(-278,2)	(-2,2)	(1,19)	(64,9)	(14,16)	(-292,1)	(134,2)	(-342,1)	(-94,1)	
L1D 79>	(-80,0)	(-124,0)	(-74,1)	(-71,0)	(14,0)	(1,4)	(-248,1)	(-24,0)	(-1,0)	(-408,0)	(12,1)	(-79,106)	(-9,0)	(-26,0)	(1,0)	(1,0)	
L1D 80>	(2,4)	(6,3)	(-82,1)	(-97,97)	(-114,50)	(14,15)	(15,1)	(1,12)	(-1,1)	(-33,1)	(-218,1)	(16,2)	(20,3)	(-20,1)	(1,0)	(1,0)	
L1D 81>	(-23,1)	(-20,1)	(12,4)	(-65,3)	(-92,3)	(-1,1)	(-13,2)	(-39,1)	(1,0)	(1,0)	(1,0)	(1,0)	(1,0)	(1,0)	(1,0)	(1,0)	
L1D 82>	(-92,0)	(-80,0)	(6,0)	(2,0)	(1,0)	(-82,0)	(-68,6)	(-13,4)	(-12,0)	(-282,0)	(0,0)	(-158,0)	(-31,0)	(-34,0)	(-214,0)	(-46,84)	
L1D 83>	(-86,1)	(-77,1)	(4,9)	(9,4)	(-7,3)	(3,4)	(-82,9)	(-20,1)	(-1,4)	(-57,1)	(1,2)	(-65,2)	(-13,16)	(1,0)	(1,0)	(1,0)	
L1D 84>	(-340,0)	(321,0)	(-86,0)	(-100,2)	(-82,0)	(-84,2)	(-99,0)	(-85,0)	(-10,83)	(-87,2)	(-83,0)	(7,0)	(-158,0)	(-191,0)	(382,0)	(-74,0)	
L1D 85>	(-84,41)	(-99,32)	(-86,11)	(-100,23)	(-85,62)	(-71,1)	(7,15)	(1,69)	(3,6)	(2,2)	(0,2)	(-72,1)	(-1,3)	(-123,1)	(-75,1)	(1,0)	
L1D 86>	(86,22)	(6,3)	(4,9)	(-172,4)	(-85,7)	(-87,2)	(-479,1)	(-86,31)	(-321,1)	(-3,4)	(5,1)	(60,1)	(-84,14)	(-99,13)	(-101,1)	(-100,1)	
L1D 87>	(-81,1)	(-100,1)	(-460,1)	(-1,5)	(0,1)	(-304,1)	(1,2)	(204,1)	(91,1)	(-69,31)	(-75,2)	(-85,2)	(-242,1)	(-70,1)	(13,1)	(1,0)	
L1D 88>	(-82,3)	(4,4)	(319,1)	(2,8)	(6,46)	(1,1)	(0,2)	(-92,1)	(270,1)	(148,1)	(-180,1)	(-86,4)	(-172,2)	(-140,1)	(-87,5)	(-80,2)	
L1D 89>	(-84,5)	(1,17)	(3,1)	(-6,1)	(102,3)	(0,4)	(-100,1)	(-94,1)	(-1,2)	(-15,1)	(-9,4)	(-88,2)	(122,1)	(-3,1)	(1,0)	(1,0)	
L1D 90>	(6,9)	(2,9)	(-88,2)	(-6,2)	(-90,2)	(-86,7)	(-89,1)	(-92,1)	(-321,2)	(-84,2)	(44,1)	(52,1)	(-82,9)	(-71,3)	(1,22)	(-7,1)	
L1D 91>	(-90,10)	(1,83)	(-6,53)	(0,1)	(-93,1)	(-30,1)	(-1,2)	(-277,1)	(4,1)	(-106,3)	(1,0)	(1,0)	(1,0)	(1,0)	(1,0)	(1,0)	
L1D 92>	(4,9)	(-94,2)	(1,7)	(6,50)	(-90,25)	(-3,83)	(0,2)	(-1,3)	(-10,19)	(-21,1)	(-418,1)	(-93,2)	(-91,3)	(110,1)	(-68,4)	(2,1)	
L1D 93>	(-111,67)	(-115,25)	(-1,3)	(-94,2)	(-106,1)	(1,1)	(-108,3)	(-92,2)	(70,1)	(1,0)	(1,0)	(1,0)	(1,0)	(1,0)	(1,0)	(1,0)	
L1D 94>	(6,3)	(4,6)	(-93,43)	(-86,10)	(2,20)	(-100,3)	(-106,2)	(-109,1)	(26,1)	(104,1)	(-84,14)	(-111,46)	(-85,6)	(-89,2)	(-128,25)	(-99,6)	
L1D 95>	(-95,3)	(-93,20)	(1,8)	(11,1)	(273,1)	(-1,1)	(-94,1)	(1,0)	(1,0)	(1,0)	(1,0)	(1,0)	(1,0)	(1,0)	(1,0)	(1,0)	
L1D 96>	(-98,1)	(4,2)	(2,5)	(-97,1)	(-32,1)	(-96,1)	(1,5)	(160,1)	(-59,1)	(-1,1)	(-160,1)	(-9,1)	(-95,1)	(-94,1)	(1,0)	(1,0)	
L1D 97>	(-83,3)	(-111,13)	(-112,1)	(-115,1)	(-103,1)	(-130,1)	(-128,2)	(1,7)	(0,2)	(2,1)	(-102,1)	(-96,1)	(1,0)	(1,0)	(1,0)	(1,0)	
L1D 98>	(2,9)	(-96,2)	(-97,9)	(-98,2)	(1,21)	(-99,6)	(14,1)	(6,4)	(-321,1)	(-3,1)	(-298,1)	(5,1)	(4,2)	(64,2)	(-71,2)	(-1,9)	
L1D 99>	(-95,1)	(1,52)	(-1,55)	(2,1)	(0,4)	(-102,1)	(-99,18)	(-98,4)	(-101,1)	(-104,1)	(1,0)	(1,0)	(1,0)	(1,0)	(1,0)	(1,0)	
L1D 100>	(98,2)	(-102,2)	(1,4)	(4,8)	(-99,12)	(-98,1)	(-100,16)	(-84,1)	(-1,15)	(-76,1)	(77,1)	(-358,1)	(-90,2)	(2,2)	(-228,1)	(-80,1)	
L1D 101>	(-100,3)	(-99,2)	(-85,1)	(1,29)	(-192,1)	(2,2)	(-1,1)	(65,1)	(-4,1)	(-6,1)	(-203,1)	(1,0)	(1,0)	(1,0)	(1,0)	(1,0)	
L1D 102>	(2,4)	(-101,3)	(4,10)	(-102,3)	(-144,1)	(-97,1)	(6,1)	(5,2)	(40,1)	(-302,2)	(18,1)	(1,3)	(-192,2)	(-333,1)	(84,1)	(12,1)	
L1D 103>	(-1,3)	(-85,5)	(-99,2)	(-104,1)	(-100,3)	(1,9)	(-192,1)	(-146,2)	(-111,1)	(-144,1)	(1,0)	(1,0)	(1,0)	(1,0)	(1,0)	(1,0)	
L1D 104>	(-43,1)	(-106,2)	(32,1)	(4,2)	(2,6)	(-104,1)	(0,3)	(-24,1)	(-48,1)	(27,1)	(-1,1)	(-6,1)	(-105,1)	(-57,1)	(33,1)	(-95,1)	
L1D 105>	(-86,1)	(-71,1)	(-105,1)	(0,2)	(-2,1)	(1,33)	(3,3)	(2,1)	(-106,2)	(73,1)	(-5,1)	(116,1)	(-1,2)	(1,0)	(1,0)	(1,0)	
L1D 106>	(106,82)	(-314,6)	(-105,10)	(-292,1)	(0,7)	(-106,9)	(1,2)	(3,1)	(-212,18)	(2,1)	(212,1)	(-1,1)	(-3,1)	(-8,1)	(-211,10)	(-317,27)	
L1D 107>	(-101,2)	(2,1)	(-314,3)	(-106,1)	(-100,12)	(-84,1)	(4,1)	(1,33)	(-28,4)	(0,3)	(-36,1)	(-318,1)	(-1,3)	(-6,1)	(15,1)	(-76,1)	
L1D 108>	(-129,3)	(-23,1)	(4,3)	(-316,1)	(-317,1)	(-314,6)	(-106,5)	(0,1)	(-93,5)	(-111,1)	(105,1)	(-28,25)	(-118,6)	(1,4)	(-108,2)	(-102,1)	
L1D 109>	(-95,1)	(1,7)	(-1,3)	(266,1)	(14,1)	(3,1)	(2,1)	(-89,1)	(1,0)	(1,0)	(1,0)	(1,0)	(1,0)	(1,0)	(1,0)	(1,0)	
L1D 110>	(1,5)	(205,1)	(-109,4)	(-119,1)	(4,10)	(-110,2)	(2,4)	(6,3)	(68,1)	(-310,1)	(100,1)	(-314,3)	(207,1)	(106,12)	(178,1)	(-4,1)	
L1D 111>	(0,6)	(3,2)	(-107,1)	(-93,1)	(-94,1)	(-195,1)	(9,1)	(-1,4)	(6,1)	(1,1)	(1,0)	(1,0)	(1,0)	(1,0)	(1,0)	(1,0)	
L1D 112>	(3,1)	(4,2)	(6,2)	(-104,1)	(-106,1)	(1,4)	(-450,1)	(-36,1)	(-23,1)	(-1,1)	(-78,1)	(-108,1)	(-12,1)	(-72,1)	(-114,3)	(-164,1)	
L1D 113>	(-144,1)	(3,1)	(-190,0)	(-114,0)	(-80,74)	(1,0)	(1,0)	(1,0)	(1,0)	(1,0)	(1,0)	(1,0)	(1,0)	(1,0)	(1,0)	(1,0)	
L1D 114>	(86,1)	(-321,1)	(-112,2)	(-117,1)	(-114,1)	(-127,1)	(5,2)	(4,3)	(28,1)	(2,5)	(6,2)	(60,1)	(1,8)	(-84,15)	(-86,2)	(-190,1)	
L1D 115>	(-1,3)	(0,1)	(343,1)	(-38,1)	(1,6)	(-158,1)	(1,0)	(1,0)	(1,0)	(1,0)	(1,0)	(1,0)	(1,0)	(1,0)	(1,0)	(1,0)	
L1D 116>	(0,2)	(4,4)	(26,1)	(8,1)	(1,2)	(9,1)	(170,1)	(-116,1)	(1,0)	(1,0)	(1,0)	(1,0)	(1,0)	(1,0)	(1,0)	(1,0)	
L1D 117>	(-85,6)	(1,15)	(3,1)	(-2,1)	(46,1)	(-5,1)	(-38,1)	(-1,4)	(-205,3)	(-109,4)	(41,4)	(1,0)	(1,0)	(1,0)	(1,0)	(1,0)	
[...]
L1D 470>	(2,5)	(-470,2)	(-202,3)	(4,1)	(6,1)	(1,1)	(1,0)	(1,0)	(1,0)	(1,0)	(1,0)	(1,0)	(1,0)	(1,0)	(1,0)	(1,0)	
L1D 471>	(2,1)	(1,0)	(1,0)	(1,0)	(1,0)	(1,0)	(1,0)	(1,0)	(1,0)	(1,0)	(1,0)	(1,0)	(1,0)	(1,0)	(1,0)	(1,0)	
L1D 472>	(2,3)	(6,1)	(1,0)	(1,0)	(1,0)	(1,0)	(1,0)	(1,0)	(1,0)	(1,0)	(1,0)	(1,0)	(1,0)	(1,0)	(1,0)	(1,0)	
L1D 473>	(-202,2)	(1,0)	(1,0)	(1,0)	(1,0)	(1,0)	(1,0)	(1,0)	(1,0)	(1,0)	(1,0)	(1,0)	(1,0)	(1,0)	(1,0)	(1,0)	
L1D 474>	(-474,2)	(2,1)	(-202,3)	(1,0)	(1,0)	(1,0)	(1,0)	(1,0)	(1,0)	(1,0)	(1,0)	(1,0)	(1,0)	(1,0)	(1,0)	(1,0)	
L1D 475>	(2,2)	(-474,1)	(1,0)	(1,0)	(1,0)	(1,0)	(1,0)	(1,0)	(1,0)	(1,0)	(1,0)	(1,0)	(1,0)	(1,0)	(1,0)	(1,0)	
L1D 476>	(1,0)	(1,0)	(1,0)	(1,0)	(1,0)	(1,0)	(1,0)	(1,0)	(1,0)	(1,0)	(1,0)	(1,0)	(1,0)	(1,0)	(1,0)	(1,0)	
L1D 477>	(-202,2)	(1,0)	(1,0)	(1,0)	(1,0)	(1,0)	(1,0)	(1,0)	(1,0)	(1,0)	(1,0)	(1,0)	(1,0)	(1,0)	(1,0)	(1,0)	
L1D 478>	(2,1)	(-478,2)	(-202,2)	(4,1)	(1,0)	(1,0)	(1,0)	(1,0)	(1,0)	(1,0)	(1,0)	(1,0)	(1,0)	(1,0)	(1,0)	(1,0)	
L1D 479>	(-482,1)	(2,1)	(0,1)	(1,2)	(-1,1)	(1,0)	(1,0)	(1,0)	(1,0)	(1,0)	(1,0)	(1,0)	(1,0)	(1,0)	(1,0)	(1,0)	
L1D 480>	(-202,1)	(0,2)	(-481,1)	(1,0)	(1,0)	(1,0)	(1,0)	(1,0)	(1,0)	(1,0)	(1,0)	(1,0)	(1,0)	(1,0)	(1,0)	(1,0)	
L1D 481>	(-202,3)	(0,1)	(3,1)	(1,0)	(1,0)	(1,0)	(1,0)	(1,0)	(1,0)	(1,0)	(1,0)	(1,0)	(1,0)	(1,0)	(1,0)	(1,0)	
L1D 482>	(-480,1)	(2,1)	(-202,1)	(4,1)	(1,0)	(1,0)	(1,0)	(1,0)	(1,0)	(1,0)	(1,0)	(1,0)	(1,0)	(1,0)	(1,0)	(1,0)	
L1D 483>	(2,1)	(0,2)	(1,0)	(1,0)	(1,0)	(1,0)	(1,0)	(1,0)	(1,0)	(1,0)	(1,0)	(1,0)	(1,0)	(1,0)	(1,0)	(1,0)	
L1D 484>	(-202,1)	(0,1)	(1,0)	(1,0)	(1,0)	(1,0)	(1,0)	(1,0)	(1,0)	(1,0)	(1,0)	(1,0)	(1,0)	(1,0)	(1,0)	(1,0)	
L1D 485>	(-202,3)	(1,0)	(1,0)	(1,0)	(1,0)	(1,0)	(1,0)	(1,0)	(1,0)	(1,0)	(1,0)	(1,0)	(1,0)	(1,0)	(1,0)	(1,0)	
L1D 486>	(2,1)	(1,0)	(1,0)	(1,0)	(1,0)	(1,0)	(1,0)	(1,0)	(1,0)	(1,0)	(1,0)	(1,0)	(1,0)	(1,0)	(1,0)	(1,0)	
L1D 487>	(-202,2)	(0,1)	(1,0)	(1,0)	(1,0)	(1,0)	(1,0)	(1,0)	(1,0)	(1,0)	(1,0)	(1,0)	(1,0)	(1,0)	(1,0)	(1,0)	
L1D 488>	(-52,1)	(0,1)	(1,0)	(1,0)	(1,0)	(1,0)	(1,0)	(1,0)	(1,0)	(1,0)	(1,0)	(1,0)	(1,0)	(1,0)	(1,0)	(1,0)	
L1D 489>	(-202,3)	(-1,1)	(0,3)	(1,0)	(1,0)	(1,0)	(1,0)	(1,0)	(1,0)	(1,0)	(1,0)	(1,0)	(1,0)	(1,0)	(1,0)	(1,0)	
L1D 490>	(0,2)	(-488,1)	(1,0)	(1,0)	(1,0)	(1,0)	(1,0)	(1,0)	(1,0)	(1,0)	(1,0)	(1,0)	(1,0)	(1,0)	(1,0)	(1,0)	
L1D 491>	(0,3)	(1,0)	(1,0)	(1,0)	(1,0)	(1,0)	(1,0)	(1,0)	(1,0)	(1,0)	(1,0)	(1,0)	(1,0)	(1,0)	(1,0)	(1,0)	
L1D 492>	(-202,2)	(0,3)	(1,0)	(1,0)	(1,0)	(1,0)	(1,0)	(1,0)	(1,0)	(1,0)	(1,0)	(1,0)	(1,0)	(1,0)	(1,0)	(1,0)	
L1D 493>	(-202,2)	(0,1)	(-491,2)	(-1,1)	(1,1)	(1,0)	(1,0)	(1,0)	(1,0)	(1,0)	(1,0)	(1,0)	(1,0)	(1,0)	(1,0)	(1,0)	
L1D 494>	(-202,1)	(0,2)	(1,1)	(1,0)	(1,0)	(1,0)	(1,0)	(1,0)	(1,0)	(1,0)	(1,0)	(1,0)	(1,0)	(1,0)	(1,0)	(1,0)	
L1D 495>	(-202,1)	(0,3)	(1,0)	(1,0)	(1,0)	(1,0)	(1,0)	(1,0)	(1,0)	(1,0)	(1,0)	(1,0)	(1,0)	(1,0)	(1,0)	(1,0)	
L1D 496>	(0,2)	(-494,1)	(1,0)	(1,0)	(1,0)	(1,0)	(1,0)	(1,0)	(1,0)	(1,0)	(1,0)	(1,0)	(1,0)	(1,0)	(1,0)	(1,0)	
L1D 497>	(-202,2)	(0,3)	(1,0)	(1,0)	(1,0)	(1,0)	(1,0)	(1,0)	(1,0)	(1,0)	(1,0)	(1,0)	(1,0)	(1,0)	(1,0)	(1,0)	
L1D 498>	(0,3)	(1,0)	(1,0)	(1,0)	(1,0)	(1,0)	(1,0)	(1,0)	(1,0)	(1,0)	(1,0)	(1,0)	(1,0)	(1,0)	(1,0)	(1,0)	
L1D 499>	(0,2)	(-497,1)	(1,0)	(1,0)	(1,0)	(1,0)	(1,0)	(1,0)	(1,0)	(1,0)	(1,0)	(1,0)	(1,0)	(1,0)	(1,0)	(1,0)	
L1D 500>	(-202,1)	(1,1)	(0,1)	(1,0)	(1,0)	(1,0)	(1,0)	(1,0)	(1,0)	(1,0)	(1,0)	(1,0)	(1,0)	(1,0)	(1,0)	(1,0)	
L1D 501>	(-202,2)	(1,1)	(-240,6)	(1,0)	(1,0)	(1,0)	(1,0)	(1,0)	(1,0)	(1,0)	(1,0)	(1,0)	(1,0)	(1,0)	(1,0)	(1,0)	
L1D 502>	(-240,38)	(1,2)	(-502,1)	(1,0)	(1,0)	(1,0)	(1,0)	(1,0)	(1,0)	(1,0)	(1,0)	(1,0)	(1,0)	(1,0)	(1,0)	(1,0)	
L1D 503>	(-1,2)	(1,0)	(1,0)	(1,0)	(1,0)	(1,0)	(1,0)	(1,0)	(1,0)	(1,0)	(1,0)	(1,0)	(1,0)	(1,0)	(1,0)	(1,0)	
L1D 504>	(1,0)	(1,0)	(1,0)	(1,0)	(1,0)	(1,0)	(1,0)	(1,0)	(1,0)	(1,0)	(1,0)	(1,0)	(1,0)	(1,0)	(1,0)	(1,0)	
L1D 505>	(1,0)	(1,0)	(1,0)	(1,0)	(1,0)	(1,0)	(1,0)	(1,0)	(1,0)	(1,0)	(1,0)	(1,0)	(1,0)	(1,0)	(1,0)	(1,0)	
L1D 506>	(1,0)	(1,0)	(1,0)	(1,0)	(1,0)	(1,0)	(1,0)	(1,0)	(1,0)	(1,0)	(1,0)	(1,0)	(1,0)	(1,0)	(1,0)	(1,0)	
L1D 507>	(1,0)	(1,0)	(1,0)	(1,0)	(1,0)	(1,0)	(1,0)	(1,0)	(1,0)	(1,0)	(1,0)	(1,0)	(1,0)	(1,0)	(1,0)	(1,0)	
L1D 508>	(-202,1)	(1,0)	(1,0)	(1,0)	(1,0)	(1,0)	(1,0)	(1,0)	(1,0)	(1,0)	(1,0)	(1,0)	(1,0)	(1,0)	(1,0)	(1,0)	
L1D 509>	(1,0)	(1,0)	(1,0)	(1,0)	(1,0)	(1,0)	(1,0)	(1,0)	(1,0)	(1,0)	(1,0)	(1,0)	(1,0)	(1,0)	(1,0)	(1,0)	
L1D 510>	(1,0)	(1,0)	(1,0)	(1,0)	(1,0)	(1,0)	(1,0)	(1,0)	(1,0)	(1,0)	(1,0)	(1,0)	(1,0)	(1,0)	(1,0)	(1,0)	
L1D 511>	(1,0)	(1,0)	(1,0)	(1,0)	(1,0)	(1,0)	(1,0)	(1,0)	(1,0)	(1,0)	(1,0)	(1,0)	(1,0)	(1,0)	(1,0)	(1,0)	

L2C -64>	(1,188)	(-5,33)	(8,7)	(-6,17)	(-39,5)	(6,14)	(-30,40)	(-3,14)	(53,1)	(3,22)	(-1,29)	(2,30)	(-4,14)	(-25,85)	(-2,14)	(25,14)	
L2C -63>	(1,52)	(1,0)	(1,0)	(1,0)	(1,0)	(1,0)	(1,0)	(1,0)	(1,0)	(1,0)	(1,0)	(1,0)	(1,0)	(1,0)	(1,0)	(1,0)	
L2C -62>	(1,6)	(1,0)	(1,0)	(1,0)	(1,0)	(1,0)	(1,0)	(1,0)	(1,0)	(1,0)	(1,0)	(1,0)	(1,0)	(1,0)	(1,0)	(1,0)	
L2C -61>	(1,6)	(62,1)	(50,2)	(55,1)	(1,0)	(1,0)	(1,0)	(1,0)	(1,0)	(1,0)	(1,0)	(1,0)	(1,0)	(1,0)	(1,0)	(1,0)	
L2C -60>	(6,1)	(1,1)	(59,1)	(18,1)	(35,1)	(1,0)	(1,0)	(1,0)	(1,0)	(1,0)	(1,0)	(1,0)	(1,0)	(1,0)	(1,0)	(1,0)	
L2C -59>	(1,3)	(25,1)	(60,1)	(-2,1)	(1,0)	(1,0)	(1,0)	(1,0)	(1,0)	(1,0)	(1,0)	(1,0)	(1,0)	(1,0)	(1,0)	(1,0)	
L2C -58>	(-1,1)	(1,0)	(1,0)	(1,0)	(1,0)	(1,0)	(1,0)	(1,0)	(1,0)	(1,0)	(1,0)	(1,0)	(1,0)	(1,0)	(1,0)	(1,0)	
L2C -57>	(25,1)	(1,2)	(2,1)	(20,1)	(51,1)	(13,1)	(1,0)	(1,0)	(1,0)	(1,0)	(1,0)	(1,0)	(1,0)	(1,0)	(1,0)	(1,0)	
L2C -56>	(39,1)	(1,5)	(57,1)	(43,1)	(1,0)	(1,0)	(1,0)	(1,0)	(1,0)	(1,0)	(1,0)	(1,0)	(1,0)	(1,0)	(1,0)	(1,0)	
L2C -55>	(1,9)	(14,1)	(25,1)	(54,1)	(2,1)	(1,0)	(1,0)	(1,0)	(1,0)	(1,0)	(1,0)	(1,0)	(1,0)	(1,0)	(1,0)	(1,0)	
L2C -54>	(25,2)	(1,5)	(44,1)	(55,2)	(43,1)	(17,1)	(1,0)	(1,0)	(1,0)	(1,0)	(1,0)	(1,0)	(1,0)	(1,0)	(1,0)	(1,0)	
L2C -53>	(25,3)	(50,1)	(1,4)	(26,1)	(14,1)	(27,4)	(5,1)	(1,0)	(1,0)	(1,0)	(1,0)	(1,0)	(1,0)	(1,0)	(1,0)	(1,0)	
L2C -52>	(13,5)	(26,2)	(39,1)	(1,4)	(41,1)	(-11,2)	(2,1)	(1,0)	(1,0)	(1,0)	(1,0)	(1,0)	(1,0)	(1,0)	(1,0)	(1,0)	
L2C -51>	(3,1)	(51,1)	(1,6)	(50,1)	(23,1)	(36,1)	(1,0)	(1,0)	(1,0)	(1,0)	(1,0)	(1,0)	(1,0)	(1,0)	(1,0)	(1,0)	
L2C -50>	(26,2)	(1,12)	(25,1)	(27,1)	(-11,1)	(1,0)	(1,0)	(1,0)	(1,0)	(1,0)	(1,0)	(1,0)	(1,0)	(1,0)	(1,0)	(1,0)	
L2C -49>	(25,186)	(50,10)	(1,20)	(6,1)	(31,1)	(45,1)	(44,1)	(9,1)	(1,0)	(1,0)	(1,0)	(1,0)	(1,0)	(1,0)	(1,0)	(1,0)	
L2C -48>	(1,20)	(25,2)	(49,2)	(48,1)	(47,1)	(9,2)	(13,1)	(45,1)	(43,1)	(0,2)	(1,0)	(1,0)	(1,0)	(1,0)	(1,0)	(1,0)	
L2C -47>	(1,14)	(25,2)	(46,1)	(47,2)	(2,1)	(48,1)	(55,1)	(-6,1)	(24,1)	(18,4)	(45,1)	(1,0)	(1,0)	(1,0)	(1,0)	(1,0)	
L2C -46>	(1,14)	(3,1)	(5,2)	(13,1)	(25,1)	(47,1)	(18,2)	(1,0)	(1,0)	(1,0)	(1,0)	(1,0)	(1,0)	(1,0)	(1,0)	(1,0)	
L2C -45>	(1,9)	(14,1)	(9,1)	(-1,1)	(45,1)	(41,1)	(15,1)	(-9,1)	(2,1)	(1,0)	(1,0)	(1,0)	(1,0)	(1,0)	(1,0)	(1,0)	
L2C -44>	(1,15)	(45,1)	(14,1)	(18,1)	(38,1)	(32,1)	(8,1)	(49,1)	(50,1)	(1,0)	(1,0)	(1,0)	(1,0)	(1,0)	(1,0)	(1,0)	
L2C -43>	(1,17)	(16,1)	(-5,1)	(8,1)	(25,2)	(54,1)	(27,1)	(32,1)	(35,1)	(15,1)	(-9,1)	(36,1)	(9,1)	(1,0)	(1,0)	(1,0)	
L2C -42>	(1,11)	(44,1)	(17,1)	(7,1)	(18,18)	(-18,9)	(42,2)	(25,2)	(60,1)	(-7,1)	(-2,1)	(1,0)	(1,0)	(1,0)	(1,0)	(1,0)	
L2C -41>	(1,16)	(17,1)	(-9,1)	(42,1)	(43,1)	(18,4)	(22,1)	(-4,2)	(13,1)	(1,0)	(1,0)	(1,0)	(1,0)	(1,0)	(1,0)	(1,0)	
L2C -40>	(1,17)	(48,1)	(14,2)	(-6,1)	(35,1)	(21,1)	(27,1)	(2,1)	(-13,1)	(-5,1)	(31,1)	(20,1)	(1,0)	(1,0)	(1,0)	(1,0)	
L2C -39>	(40,24)	(4,3)	(1,19)	(22,2)	(56,1)	(31,4)	(10,1)	(30,1)	(27,2)	(26,2)	(37,1)	(35,1)	(-3,1)	(13,3)	(-9,1)	(2,1)	
L2C -38>	(1,14)	(14,1)	(25,2)	(2,1)	(27,1)	(-14,1)	(-1,1)	(35,1)	(1,0)	(1,0)	(1,0)	(1,0)	(1,0)	(1,0)	(1,0)	(1,0)	
L2C -37>	(1,23)	(41,1)	(38,1)	(43,1)	(9,1)	(21,1)	(1,0)	(1,0)	(1,0)	(1,0)	(1,0)	(1,0)	(1,0)	(1,0)	(1,0)	(1,0)	
L2C -36>	(1,12)	(37,2)	(10,1)	(-1,1)	(4,1)	(5,2)	(25,1)	(22,1)	(34,1)	(13,1)	(49,1)	(1,0)	(1,0)	(1,0)	(1,0)	(1,0)	
L2C -35>	(-18,1)	(1,10)	(9,1)	(22,1)	(-3,1)	(8,1)	(18,1)	(25,1)	(1,0)	(1,0)	(1,0)	(1,0)	(1,0)	(1,0)	(1,0)	(1,0)	
L2C -34>	(35,2)	(33,3)	(1,12)	(27,1)	(0,1)	(-9,1)	(26,1)	(25,2)	(60,1)	(24,1)	(29,1)	(13,1)	(21,1)	(51,1)	(34,1)	(30,2)	
L2C -33>	(1,19)	(25,2)	(58,1)	(-1,2)	(-22,1)	(6,1)	(-16,1)	(50,1)	(21,1)	(-2,1)	(4,1)	(24,1)	(28,1)	(1,0)	(1,0)	(1,0)	
L2C -32>	(1,16)	(13,1)	(-1,1)	(55,1)	(3,1)	(-25,1)	(33,3)	(12,1)	(1,0)	(1,0)	(1,0)	(1,0)	(1,0)	(1,0)	(1,0)	(1,0)	
L2C -31>	(-1,1)	(-13,1)	(1,8)	(-26,1)	(32,1)	(50,2)	(-4,1)	(27,1)	(26,1)	(38,1)	(40,1)	(3,1)	(-2,2)	(30,1)	(54,1)	(-3,1)	
L2C -30>	(1,26)	(31,1)	(2,1)	(-2,1)	(41,1)	(-24,1)	(4,1)	(35,1)	(-25,18)	(-10,1)	(24,1)	(6,1)	(7,1)	(-4,1)	(-23,1)	(12,1)	
L2C -29>	(1,30)	(22,1)	(55,1)	(25,1)	(7,2)	(48,1)	(-1,1)	(4,2)	(2,1)	(11,1)	(-25,2)	(29,1)	(26,1)	(24,1)	(18,1)	(-23,1)	
L2C -28>	(46,1)	(1,29)	(29,5)	(25,1)	(51,1)	(2,2)	(5,1)	(-25,6)	(18,1)	(-1,1)	(28,2)	(17,1)	(42,1)	(14,1)	(4,2)	(45,1)	
L2C -27>	(1,23)	(28,1)	(-4,2)	(25,2)	(38,1)	(33,1)	(2,2)	(7,1)	(27,1)	(-25,5)	(6,1)	(-1,1)	(19,2)	(44,1)	(-5,1)	(-2,1)	
L2C -26>	(1,29)	(-3,3)	(27,21)	(7,1)	(-25,4)	(13,2)	(51,1)	(-13,3)	(41,1)	(33,1)	(5,1)	(44,1)	(22,1)	(43,1)	(-7,1)	(2,1)	
L2C -25>	(1,44)	(50,28)	(40,5)	(-25,24)	(26,57)	(51,2)	(-24,3)	(10,1)	(12,1)	(-26,1)	(-1,1)	(14,1)	(36,1)	(2,2)	(22,1)	(16,1)	
L2C -24>	(1,35)	(-25,25)	(25,226)	(-2,1)	(50,4)	(-24,1)	(4,1)	(-1,3)	(-6,2)	(11,1)	(18,6)	(-7,1)	(-18,7)	(-3,1)	(2,2)	(30,3)	
L2C -23>	(1,23)	(-20,1)	(-2,1)	(2,5)	(-32,1)	(13,2)	(24,1)	(5,1)	(7,1)	(36,1)	(27,1)	(9,1)	(6,1)	(30,1)	(-1,1)	(22,1)	
L2C -22>	(1,11)	(14,1)	(10,2)	(-25,2)	(-2,1)	(29,1)	(23,1)	(-1,1)	(22,1)	(3,1)	(5,1)	(18,1)	(21,1)	(1,0)	(1,0)	(1,0)	
L2C -21>	(-9,1)	(1,16)	(4,2)	(19,2)	(18,1)	(-1,1)	(-6,1)	(-7,1)	(11,1)	(21,1)	(7,1)	(24,2)	(3,1)	(-27,1)	(30,1)	(22,4)	
L2C -20>	(1,18)	(16,2)	(17,1)	(27,1)	(2,1)	(4,1)	(-7,1)	(41,1)	(6,1)	(-33,1)	(1,0)	(1,0)	(1,0)	(1,0)	(1,0)	(1,0)	
L2C -19>	(21,1)	(1,20)	(-15,3)	(-4,1)	(12,1)	(41,1)	(31,1)	(-10,1)	(-1,1)	(20,2)	(-25,2)	(19,1)	(-27,1)	(-22,1)	(23,2)	(2,1)	
L2C -18>	(6,1)	(1,16)	(2,3)	(-10,1)	(-1,2)	(42,3)	(-2,1)	(19,6)	(36,7)	(24,1)	(4,2)	(-25,1)	(20,3)	(-6,1)	(13,6)	(35,1)	
L2C -17>	(2,2)	(1,20)	(-14,1)	(18,2)	(-1,5)	(-2,1)	(-22,2)	(9,1)	(-6,1)	(4,2)	(-28,1)	(-25,1)	(37,1)	(3,1)	(-17,1)	(16,1)	
L2C -16>	(-1,2)	(-21,1)	(1,12)	(17,3)	(30,1)	(-23,1)	(14,1)	(-44,2)	(-26,1)	(8,1)	(12,1)	(-7,1)	(32,1)	(37,1)	(24,1)	(16,1)	
L2C -15>	(1,20)	(35,3)	(-3,1)	(14,1)	(5,1)	(10,2)	(-42,1)	(27,1)	(3,1)	(19,1)	(18,1)	(-28,1)	(11,1)	(-34,1)	(16,1)	(2,1)	
L2C -14>	(15,5)	(1,21)	(-25,2)	(4,2)	(5,1)	(-1,4)	(2,3)	(-35,1)	(19,1)	(16,1)	(13,1)	(14,1)	(-4,1)	(-18,1)	(25,1)	(7,1)	
L2C -13>	(1,36)	(14,24)	(53,6)	(10,1)	(-16,1)	(25,3)	(26,10)	(-1,2)	(-15,2)	(-13,22)	(27,7)	(-39,1)	(-25,2)	(-4,1)	(-27,1)	(40,1)	
L2C -12>	(1,38)	(-13,8)	(13,3)	(8,2)	(-3,1)	(26,1)	(10,2)	(-16,1)	(-8,1)	(-4,2)	(-1,5)	(-14,1)	(3,1)	(27,1)	(36,1)	(-9,1)	
L2C -11>	(-1,3)	(1,31)	(-13,2)	(-30,1)	(10,2)	(5,1)	(12,3)	(4,2)	(53,1)	(2,4)	(-5,3)	(18,1)	(-2,4)	(-26,1)	(-4,1)	(19,1)	
L2C -10>	(-1,2)	(-8,4)	(1,22)	(11,10)	(8,2)	(3,2)	(5,1)	(4,1)	(2,2)	(-2,1)	(-25,1)	(-40,1)	(17,1)	(41,1)	(-5,3)	(-47,1)	
L2C -9>	(1,35)	(-1,5)	(-48,1)	(31,2)	(2,4)	(-2,3)	(10,4)	(6,1)	(42,1)	(40,1)	(-39,1)	(23,1)	(9,1)	(-7,1)	(-47,1)	(-25,2)	
L2C -8>	(1,63)	(7,4)	(-1,5)	(-2,7)	(4,7)	(-3,3)	(23,1)	(-20,1)	(9,8)	(-8,1)	(-26,1)	(5,3)	(3,5)	(2,1)	(-48,2)	(14,1)	
L2C -7>	(-1,7)	(18,2)	(8,3)	(-2,3)	(1,51)	(10,1)	(-5,5)	(26,3)	(0,1)	(49,1)	(3,2)	(35,1)	(-52,1)	(34,1)	(-25,1)	(21,1)	
L2C -6>	(-1,19)	(-16,1)	(1,57)	(5,4)	(7,7)	(4,3)	(2,8)	(13,1)	(-4,3)	(20,1)	(-47,1)	(-56,2)	(12,1)	(15,3)	(-20,1)	(-18,3)	
L2C -5>	(-5,6)	(-1,12)	(-7,1)	(1,70)	(0,22)	(-18,1)	(4,6)	(2,7)	(46,1)	(-4,2)	(-14,1)	(40,1)	(13,1)	(6,13)	(-37,1)	(-34,1)	
L2C -4>	(-1,28)	(-2,1)	(2,4)	(1,69)	(8,2)	(5,8)	(15,4)	(0,1)	(16,1)	(-5,1)	(9,2)	(-3,6)	(-9,1)	(-4,6)	(-31,2)	(52,1)	
L2C -3>	(0,1)	(-1,20)	(1,67)	(-27,1)	(-4,10)	(20,1)	(2,6)	(4,13)	(-2,8)	(-42,1)	(-13,1)	(-8,2)	(6,4)	(-9,1)	(-16,2)	(-7,2)	
L2C -2>	(-1,24)	(-2,11)	(1,72)	(-11,3)	(2,2)	(0,5)	(3,12)	(-28,1)	(-40,1)	(5,4)	(4,5)	(-3,10)	(-30,1)	(26,1)	(-7,3)	(-24,1)	
L2C -1>	(-1,119)	(-2,38)	(-3,22)	(14,3)	(-7,1)	(-4,13)	(3,18)	(18,4)	(20,3)	(1,63)	(4,3)	(0,9)	(2,81)	(8,6)	(-10,3)	(6,2)	
L2C 0>	(-1,7)	(0,103)	(1,19)	(-38,1)	(12,1)	(-10,3)	(2,3)	(-37,1)	(-30,1)	(-2,1)	(30,1)	(-25,1)	(-21,1)	(15,1)	(-5,2)	(-8,4)	
L2C 1>	(1,247)	(-17,1)	(7,3)	(5,3)	(-23,1)	(4,3)	(-8,6)	(13,2)	(3,6)	(-5,2)	(8,2)	(-7,8)	(-13,4)	(2,16)	(-6,8)	(10,2)	
L2C 2>	(3,85)	(-1,13)	(25,2)	(1,188)	(14,3)	(2,32)	(-5,3)	(9,1)	(13,2)	(4,3)	(-37,1)	(-11,2)	(8,2)	(6,3)	(23,1)	(-33,1)	
L2C 3>	(1,165)	(-4,4)	(-1,12)	(6,4)	(3,8)	(2,158)	(18,2)	(8,3)	(-5,4)	(-2,16)	(-11,2)	(-34,2)	(-49,2)	(4,6)	(-12,2)	(-20,1)	
L2C 4>	(-1,7)	(3,5)	(1,134)	(-8,3)	(-2,6)	(-5,5)	(15,7)	(2,9)	(5,2)	(-3,13)	(46,2)	(11,1)	(-46,2)	(-33,1)	(-17,2)	(4,5)	
L2C 5>	(1,79)	(-15,1)	(-6,1)	(-7,1)	(9,1)	(-49,1)	(-37,1)	(-3,3)	(2,8)	(-45,2)	(-1,7)	(-4,5)	(-27,1)	(8,1)	(-2,1)	(-9,1)	
L2C 6>	(-1,5)	(6,10)	(18,1)	(1,65)	(2,8)	(-2,5)	(-16,1)	(-5,6)	(51,1)	(-13,1)	(-10,3)	(-29,1)	(-4,3)	(-28,1)	(25,1)	(-11,1)	
L2C 7>	(-1,6)	(1,45)	(6,2)	(2,5)	(12,3)	(-5,5)	(-21,1)	(22,1)	(-12,3)	(-61,1)	(5,1)	(-10,2)	(-31,1)	(-6,3)	(-48,1)	(34,1)	
L2C 8>	(1,52)	(-5,3)	(0,3)	(5,1)	(-1,2)	(6,1)	(-7,4)	(3,2)	(52,1)	(-62,1)	(15,2)	(-9,1)	(-3,5)	(-12,1)	(-11,2)	(-14,1)	
L2C 9>	(1,42)	(2,6)	(-24,1)	(6,2)	(-8,4)	(-1,3)	(-6,1)	(-9,2)	(-38,1)	(35,1)	(-5,1)	(21,1)	(-40,1)	(-33,1)	(12,1)	(-12,3)	
L2C 10>	(1,25)	(-3,2)	(2,5)	(-12,3)	(-2,1)	(13,1)	(-31,1)	(-1,2)	(-5,2)	(-9,2)	(-7,1)	(-21,2)	(-6,2)	(-28,1)	(16,2)	(-17,2)	
L2C 11>	(1,22)	(-54,1)	(-12,1)	(-10,9)	(4,1)	(-15,1)	(-5,1)	(-22,1)	(-21,1)	(-1,4)	(2,1)	(32,1)	(5,1)	(-13,1)	(20,1)	(-3,1)	
L2C 12>	(1,20)	(18,1)	(-24,1)	(0,1)	(-11,7)	(14,1)	(4,1)	(-10,2)	(-41,1)	(-6,1)	(-1,3)	(21,1)	(-14,1)	(-4,1)	(20,1)	(-60,1)	
L2C 13>	(1,15)	(-3,2)	(-12,4)	(-26,3)	(14,3)	(40,6)	(16,1)	(26,1)	(27,1)	(-22,1)	(13,5)	(-25,2)	(-39,7)	(-1,1)	(18,7)	(2,4)	
L2C 14>	(1,29)	(-1,2)	(-7,2)	(-39,2)	(-13,26)	(-12,2)	(40,2)	(-26,1)	(0,1)	(13,1)	(-43,1)	(2,1)	(-34,1)	(25,1)	(-35,1)	(5,1)	
L2C 15>	(1,17)	(-1,2)	(-62,1)	(-20,2)	(-13,1)	(-46,1)	(14,2)	(-14,2)	(-22,1)	(-41,1)	(-39,2)	(-4,2)	(4,1)	(-18,3)	(6,2)	(-24,1)	
L2C 16>	(-10,2)	(1,18)	(-14,1)	(5,2)	(-4,1)	(-40,1)	(-8,1)	(18,1)	(44,1)	(3,3)	(28,1)	(-1,1)	(-29,1)	(6,1)	(-23,1)	(-28,2)	
L2C 17>	(1,13)	(-16,3)	(-15,1)	(-14,1)	(31,2)	(2,6)	(-32,1)	(-26,1)	(-34,1)	(-1,2)	(10,1)	(5,1)	(27,1)	(-59,1)	(1,0)	(1,0)	
L2C 18>	(-1,2)	(1,17)	(-6,3)	(-41,1)	(-17,5)	(6,1)	(-24,11)	(4,2)	(-25,1)	(-5,2)	(2,5)	(17,1)	(-42,28)	(-23,1)	(18,48)	(-32,1)	
L2C 19>	(1,16)	(-47,1)	(-34,1)	(6,1)	(-18,5)	(0,2)	(-13,1)	(-31,1)	(26,1)	(-46,1)	(2,1)	(3,1)	(-3,1)	(-61,1)	(-1,2)	(1,0)	
L2C 20>	(-1,3)	(1,13)	(-44,2)	(-3,1)	(-18,1)	(-6,1)	(25,1)	(-51,1)	(3,1)	(14,1)	(-13,1)	(-2,1)	(2,1)	(4,1)	(-7,1)	(-19,1)	
L2C 21>	(1,11)	(-50,1)	(-1,1)	(3,1)	(-4,1)	(-22,1)	(12,1)	(-24,2)	(-14,1)	(-12,1)	(2,2)	(-19,1)	(4,1)	(-49,1)	(-3,1)	(-2,3)	
L2C 22>	(1,14)	(2,2)	(25,1)	(-35,1)	(-1,4)	(-21,5)	(-23,1)	(-2,1)	(-18,1)	(-20,1)	(0,1)	(-4,1)	(-39,1)	(-54,1)	(-19,1)	(1,0)	
L2C 23>	(10,1)	(1,8)	(27,1)	(15,1)	(20,1)	(2,1)	(-19,1)	(-22,2)	(-4,2)	(-28,2)	(28,1)	(18,1)	(29,1)	(-25,1)	(-10,1)	(17,1)	
L2C 24>	(11,1)	(-23,5)	(1,18)	(10,1)	(21,1)	(3,2)	(-39,1)	(-8,1)	(-51,1)	(2,2)	(-2,1)	(-60,1)	(-28,1)	(-10,1)	(28,1)	(18,1)	
L2C 25>	(1,27)	(-24,155)	(25,180)	(-49,183)	(-4,2)	(-53,1)	(-57,1)	(-43,1)	(-54,1)	(-40,3)	(-33,1)	(-51,1)	(-62,1)	(-48,1)	(-59,1)	(-45,1)	
L2C 26>	(-25,29)	(1,70)	(-12,7)	(12,4)	(-26,3)	(2,5)	(-28,3)	(17,1)	(24,1)	(-1,1)	(-51,1)	(-24,1)	(-6,1)	(-23,1)	(15,1)	(-4,1)	
L2C 27>	(1,31)	(-7,1)	(-13,6)	(-26,15)	(-28,2)	(-1,1)	(-29,1)	(8,4)	(-30,1)	(-27,1)	(-12,1)	(-14,1)	(-8,2)	(32,1)	(3,1)	(13,8)	
L2C 28>	(1,11)	(-42,2)	(-17,1)	(-4,1)	(-2,2)	(-5,1)	(-60,1)	(2,5)	(-3,3)	(-28,1)	(-57,1)	(21,1)	(-18,1)	(-24,1)	(-27,1)	(1,0)	
L2C 29>	(1,17)	(-12,1)	(-37,2)	(-21,1)	(2,1)	(-24,2)	(-15,1)	(9,1)	(-18,1)	(1,0)	(1,0)	(1,0)	(1,0)	(1,0)	(1,0)	(1,0)	
L2C 30>	(-29,2)	(1,8)	(-43,1)	(-61,1)	(2,3)	(-47,1)	(-2,1)	(-23,4)	(-20,1)	(-7,1)	(-35,1)	(-4,3)	(-27,1)	(-33,1)	(-18,1)	(1,0)	
L2C 31>	(1,14)	(-44,1)	(-21,1)	(-5,1)	(-48,1)	(-38,1)	(-13,1)	(-7,1)	(-29,1)	(-36,1)	(-18,1)	(5,1)	(1,0)	(1,0)	(1,0)	(1,0)	
L2C 32>	(1,1)	(-1,1)	(-2,2)	(-37,1)	(-25,1)	(-48,1)	(-21,1)	(1,0)	(1,0)	(1,0)	(1,0)	(1,0)	(1,0)	(1,0)	(1,0)	(1,0)	
L2C 33>	(1,8)	(-5,1)	(-43,1)	(-34,1)	(-32,3)	(-21,3)	(-1,1)	(1,0)	(1,0)	(1,0)	(1,0)	(1,0)	(1,0)	(1,0)	(1,0)	(1,0)	
L2C 34>	(1,3)	(4,2)	(2,2)	(-33,1)	(-31,1)	(-19,1)	(-29,1)	(24,1)	(-20,1)	(-48,1)	(-25,2)	(-40,1)	(1,0)	(1,0)	(1,0)	(1,0)	
L2C 35>	(1,8)	(-19,3)	(-34,2)	(-7,1)	(-36,3)	(0,1)	(15,1)	(-8,1)	(-23,1)	(-61,1)	(-17,1)	(1,0)	(1,0)	(1,0)	(1,0)	(1,0)	
L2C 36>	(1,5)	(-16,1)	(7,1)	(-24,2)	(13,3)	(6,1)	(-2,1)	(-18,2)	(18,6)	(3,1)	(-5,1)	(1,0)	(1,0)	(1,0)	(1,0)	(1,0)	
L2C 37>	(1,6)	(-16,1)	(-2,1)	(2,1)	(-20,1)	(-14,1)	(-6,1)	(-39,1)	(-3,1)	(-9,1)	(-47,1)	(1,0)	(1,0)	(1,0)	(1,0)	(1,0)	
L2C 38>	(-5,1)	(1,5)	(-1,4)	(-8,1)	(-37,1)	(-41,1)	(1,0)	(1,0)	(1,0)	(1,0)	(1,0)	(1,0)	(1,0)	(1,0)	(1,0)	(1,0)	
L2C 39>	(1,6)	(-13,1)	(-38,1)	(1,0)	(1,0)	(1,0)	(1,0)	(1,0)	(1,0)	(1,0)	(1,0)	(1,0)	(1,0)	(1,0)	(1,0)	(1,0)	
L2C 40>	(-39,24)	(-16,3)	(-14,2)	(-52,5)	(-13,1)	(2,1)	(1,6)	(-1,1)	(-53,3)	(5,1)	(-37,1)	(-19,1)	(-2,1)	(-36,1)	(-4,1)	(1,0)	
L2C 41>	(1,7)	(-1,1)	(-6,1)	(-40,1)	(-50,1)	(4,1)	(3,1)	(-27,1)	(-47,1)	(-51,1)	(-20,1)	(8,1)	(1,0)	(1,0)	(1,0)	(1,0)	
L2C 42>	(1,4)	(-21,1)	(-36,1)	(-30,2)	(-10,1)	(2,1)	(-42,2)	(-24,2)	(18,1)	(-7,1)	(-41,1)	(1,0)	(1,0)	(1,0)	(1,0)	(1,0)	
L2C 43>	(1,3)	(-7,1)	(-24,1)	(-8,1)	(17,1)	(10,1)	(6,1)	(-21,1)	(-34,1)	(1,0)	(1,0)	(1,0)	(1,0)	(1,0)	(1,0)	(1,0)	
L2C 44>	(3,1)	(1,3)	(-2,1)	(-14,1)	(-29,1)	(-3,1)	(-46,1)	(-4,1)	(-1,1)	(1,0)	(1,0)	(1,0)	(1,0)	(1,0)	(1,0)	(1,0)	
L2C 45>	(-31,1)	(1,6)	(-25,4)	(-1,1)	(4,1)	(-11,1)	(-47,1)	(-24,1)	(-10,1)	(1,0)	(1,0)	(1,0)	(1,0)	(1,0)	(1,0)	(1,0)	
L2C 46>	(-13,1)	(2,1)	(1,3)	(-1,1)	(-28,1)	(-15,1)	(-14,1)	(1,0)	(1,0)	(1,0)	(1,0)	(1,0)	(1,0)	(1,0)	(1,0)	(1,0)	
L2C 47>	(1,3)	(-48,2)	(2,1)	(-47,2)	(-50,1)	(-49,2)	(1,0)	(1,0)	(1,0)	(1,0)	(1,0)	(1,0)	(1,0)	(1,0)	(1,0)	(1,0)	
L2C 48>	(1,6)	(-1,1)	(-39,1)	(-28,1)	(-48,1)	(-3,1)	(1,0)	(1,0)	(1,0)	(1,0)	(1,0)	(1,0)	(1,0)	(1,0)	(1,0)	(1,0)	
L2C 49>	(1,1)	(-48,1)	(-19,1)	(-35,1)	(8,1)	(-51,1)	(-1,1)	(-31,1)	(-18,1)	(-44,1)	(1,0)	(1,0)	(1,0)	(1,0)	(1,0)	(1,0)	
L2C 50>	(-24,20)	(1,10)	(-49,26)	(-25,1)	(-50,1)	(2,2)	(-14,1)	(3,1)	(-11,1)	(-61,1)	(-51,2)	(-30,1)	(-28,1)	(1,0)	(1,0)	(1,0)	
L2C 51>	(-25,4)	(1,18)	(-50,1)	(-21,1)	(-53,1)	(-28,1)	(5,1)	(2,1)	(1,0)	(1,0)	(1,0)	(1,0)	(1,0)	(1,0)	(1,0)	(1,0)	
L2C 52>	(1,9)	(-3,1)	(-27,1)	(2,1)	(-24,1)	(-56,1)	(-28,1)	(-45,1)	(1,0)	(1,0)	(1,0)	(1,0)	(1,0)	(1,0)	(1,0)	(1,0)	
L2C 53>	(-26,2)	(-13,6)	(-34,1)	(1,0)	(1,0)	(1,0)	(1,0)	(1,0)	(1,0)	(1,0)	(1,0)	(1,0)	(1,0)	(1,0)	(1,0)	(1,0)	
L2C 54>	(1,3)	(-13,1)	(-28,1)	(2,1)	(1,0)	(1,0)	(1,0)	(1,0)	(1,0)	(1,0)	(1,0)	(1,0)	(1,0)	(1,0)	(1,0)	(1,0)	
L2C 55>	(1,3)	(-25,1)	(-54,1)	(-60,1)	(0,1)	(2,1)	(1,0)	(1,0)	(1,0)	(1,0)	(1,0)	(1,0)	(1,0)	(1,0)	(1,0)	(1,0)	
L2C 56>	(1,1)	(-61,1)	(-39,1)	(1,0)	(1,0)	(1,0)	(1,0)	(1,0)	(1,0)	(1,0)	(1,0)	(1,0)	(1,0)	(1,0)	(1,0)	(1,0)	
L2C 57>	(1,4)	(-8,1)	(-3,1)	(1,0)	(1,0)	(1,0)	(1,0)	(1,0)	(1,0)	(1,0)	(1,0)	(1,0)	(1,0)	(1,0)	(1,0)	(1,0)	
L2C 58>	(1,1)	(-3,1)	(-52,1)	(1,0)	(1,0)	(1,0)	(1,0)	(1,0)	(1,0)	(1,0)	(1,0)	(1,0)	(1,0)	(1,0)	(1,0)	(1,0)	
L2C 59>	(-31,1)	(-25,1)	(1,0)	(1,0)	(1,0)	(1,0)	(1,0)	(1,0)	(1,0)	(1,0)	(1,0)	(1,0)	(1,0)	(1,0)	(1,0)	(1,0)	
L2C 60>	(1,1)	(-2,1)	(-42,1)	(-47,1)	(1,0)	(1,0)	(1,0)	(1,0)	(1,0)	(1,0)	(1,0)	(1,0)	(1,0)	(1,0)	(1,0)	(1,0)	
L2C 61>	(-3,1)	(-28,1)	(-4,1)	(1,0)	(1,0)	(1,0)	(1,0)	(1,0)	(1,0)	(1,0)	(1,0)	(1,0)	(1,0)	(1,0)	(1,0)	(1,0)	
L2C 62>	(-32,1)	(1,1)	(-5,1)	(1,0)	(1,0)	(1,0)	(1,0)	(1,0)	(1,0)	(1,0)	(1,0)	(1,0)	(1,0)	(1,0)	(1,0)	(1,0)	
L2C 63>	(1,0)	(1,0)	(1,0)	(1,0)	(1,0)	(1,0)	(1,0)	(1,0)	(1,0)	(1,0)	(1,0)	(1,0)	(1,0)	(1,0)	(1,0)	(1,0)	

DRAM Statistics
 CHANNEL 0
 RQ ROW_BUFFER_HIT:      21659  ROW_BUFFER_MISS:      56647
 DBUS_CONGESTED:     144197
 WQ ROW_BUFFER_HIT:      21693  ROW_BUFFER_MISS:      56566  FULL:          0

 AVG_CONGESTED_CYCLE: 6
