
*** ChampSim Multicore Out-of-Order Simulator ***

Warmup Instructions: 1000000
Simulation Instructions: 10000000
Number of CPUs: 1
LLC sets: 2048
LLC ways: 16
Off-chip DRAM Size: 4096 MB Channels: 1 Width: 64-bit Data Rate: 3200 MT/s

CPU 0 runs /home/virtualcse/Data-Prefetching/ChampSim/dpc3_traces/628.pop2_s-17B.champsimtrace.xz
Ultra pref. initializing...
Ultra pref. initialized
Ultra pref. initializing...
Ultra pref. initialized

Warmup complete CPU 0 instructions: 1000001 cycles: 329364 (Simulation time: 0 hr 0 min 1 sec) 

Heartbeat CPU 0 instructions: 10000000 cycles: 4363833 heartbeat IPC: 2.29156 cumulative IPC: 2.23078 (Simulation time: 0 hr 0 min 12 sec) 
Finished CPU 0 instructions: 10000000 cycles: 4474629 cumulative IPC: 2.23482 (Simulation time: 0 hr 0 min 13 sec) 

CPU 0 Branch Prediction Accuracy: 97.0057% MPKI: 3.1961 Average ROB Occupancy at Mispredict: 129.705

ChampSim completed all CPUs

Region of Interest Statistics

CPU 0 cumulative IPC: 2.23482 instructions: 10000000 cycles: 4474629
L1D TOTAL     ACCESS:    3954367  HIT:    3709158  MISS:     245209
L1D LOAD      ACCESS:    1339518  HIT:    1305461  MISS:      34057
L1D RFO       ACCESS:     599524  HIT:     544173  MISS:      55351
L1D PREFETCH  ACCESS:    2015325  HIT:    1859524  MISS:     155801
L1D WRITEBACK ACCESS:          0  HIT:          0  MISS:          0
L1D PREFETCH  REQUESTED:   37387003  ISSUED:   10140273  USEFUL:     137254  USELESS:      34785
L1D AVERAGE MISS LATENCY: 25.5776 cycles
L1I TOTAL     ACCESS:     299763  HIT:     287942  MISS:      11821
L1I LOAD      ACCESS:     299763  HIT:     287942  MISS:      11821
L1I RFO       ACCESS:          0  HIT:          0  MISS:          0
L1I PREFETCH  ACCESS:          0  HIT:          0  MISS:          0
L1I WRITEBACK ACCESS:          0  HIT:          0  MISS:          0
L1I PREFETCH  REQUESTED:          0  ISSUED:          0  USEFUL:          0  USELESS:          0
L1I AVERAGE MISS LATENCY: 16.8965 cycles
L2C TOTAL     ACCESS:    1139084  HIT:     987304  MISS:     151780
L2C LOAD      ACCESS:      40016  HIT:      31535  MISS:       8481
L2C RFO       ACCESS:      55306  HIT:      34083  MISS:      21223
L2C PREFETCH  ACCESS:     961155  HIT:     839084  MISS:     122071
L2C WRITEBACK ACCESS:      82607  HIT:      82602  MISS:          5
L2C PREFETCH  REQUESTED:    3020389  ISSUED:    1887747  USEFUL:      25643  USELESS:     106427
L2C AVERAGE MISS LATENCY: 68.3453 cycles
LLC TOTAL     ACCESS:     190835  HIT:     155834  MISS:      35001
LLC LOAD      ACCESS:       8086  HIT:       7111  MISS:        975
LLC RFO       ACCESS:      21214  HIT:      19101  MISS:       2113
LLC PREFETCH  ACCESS:     122475  HIT:      90670  MISS:      31805
LLC WRITEBACK ACCESS:      39060  HIT:      38952  MISS:        108
LLC PREFETCH  REQUESTED:          0  ISSUED:          0  USEFUL:       1867  USELESS:      17121
LLC AVERAGE MISS LATENCY: 163.534 cycles
Major fault: 0 Minor fault: 1081

L1D -512>	(0,18)	(1,20)	(4,14)	(2,79)	(-1,2)	(112,1)	(5,9)	(8,22)	(326,1)	(16,1)	(6,14)	(35,1)	(196,3)	(-121,0)	(3,4)	(432,2)	
L1D -511>	(1,13)	(2,10)	(3,4)	(8,7)	(4,6)	(5,2)	(6,1)	(1,0)	(1,0)	(1,0)	(1,0)	(1,0)	(1,0)	(1,0)	(1,0)	(1,0)	
L1D -510>	(2,113)	(1,16)	(4,37)	(6,98)	(8,71)	(0,2)	(3,7)	(5,4)	(10,1)	(7,2)	(13,1)	(1,0)	(1,0)	(1,0)	(1,0)	(1,0)	
L1D -509>	(2,4)	(8,5)	(-1,1)	(6,1)	(4,1)	(1,1)	(1,0)	(1,0)	(1,0)	(1,0)	(1,0)	(1,0)	(1,0)	(1,0)	(1,0)	(1,0)	
L1D -508>	(2,15)	(432,1)	(4,25)	(8,45)	(6,30)	(510,6)	(1,3)	(10,1)	(16,1)	(1,0)	(1,0)	(1,0)	(1,0)	(1,0)	(1,0)	(1,0)	
L1D -507>	(6,1)	(4,1)	(11,2)	(2,4)	(1,1)	(8,1)	(1,0)	(1,0)	(1,0)	(1,0)	(1,0)	(1,0)	(1,0)	(1,0)	(1,0)	(1,0)	
L1D -506>	(8,10)	(508,1)	(2,5)	(1,2)	(6,6)	(4,5)	(3,1)	(1,0)	(1,0)	(1,0)	(1,0)	(1,0)	(1,0)	(1,0)	(1,0)	(1,0)	
L1D -505>	(2,8)	(-1,15)	(8,8)	(1,0)	(1,0)	(1,0)	(1,0)	(1,0)	(1,0)	(1,0)	(1,0)	(1,0)	(1,0)	(1,0)	(1,0)	(1,0)	
L1D -504>	(2,11)	(4,22)	(6,61)	(8,59)	(3,3)	(1,1)	(1,0)	(1,0)	(1,0)	(1,0)	(1,0)	(1,0)	(1,0)	(1,0)	(1,0)	(1,0)	
L1D -503>	(-1,10)	(2,3)	(1,0)	(1,0)	(1,0)	(1,0)	(1,0)	(1,0)	(1,0)	(1,0)	(1,0)	(1,0)	(1,0)	(1,0)	(1,0)	(1,0)	
L1D -502>	(1,3)	(2,6)	(378,1)	(3,6)	(4,2)	(35,2)	(1,0)	(1,0)	(1,0)	(1,0)	(1,0)	(1,0)	(1,0)	(1,0)	(1,0)	(1,0)	
L1D -501>	(-1,1)	(1,0)	(1,0)	(1,0)	(1,0)	(1,0)	(1,0)	(1,0)	(1,0)	(1,0)	(1,0)	(1,0)	(1,0)	(1,0)	(1,0)	(1,0)	
L1D -500>	(35,5)	(1,1)	(2,2)	(3,1)	(33,1)	(1,0)	(1,0)	(1,0)	(1,0)	(1,0)	(1,0)	(1,0)	(1,0)	(1,0)	(1,0)	(1,0)	
L1D -499>	(-1,1)	(1,0)	(1,0)	(1,0)	(1,0)	(1,0)	(1,0)	(1,0)	(1,0)	(1,0)	(1,0)	(1,0)	(1,0)	(1,0)	(1,0)	(1,0)	
L1D -498>	(3,1)	(8,1)	(-4,1)	(1,0)	(1,0)	(1,0)	(1,0)	(1,0)	(1,0)	(1,0)	(1,0)	(1,0)	(1,0)	(1,0)	(1,0)	(1,0)	
L1D -497>	(1,0)	(1,0)	(1,0)	(1,0)	(1,0)	(1,0)	(1,0)	(1,0)	(1,0)	(1,0)	(1,0)	(1,0)	(1,0)	(1,0)	(1,0)	(1,0)	
L1D -496>	(1,2)	(2,4)	(35,1)	(1,0)	(1,0)	(1,0)	(1,0)	(1,0)	(1,0)	(1,0)	(1,0)	(1,0)	(1,0)	(1,0)	(1,0)	(1,0)	
L1D -495>	(1,1)	(5,3)	(6,3)	(4,1)	(3,1)	(1,0)	(1,0)	(1,0)	(1,0)	(1,0)	(1,0)	(1,0)	(1,0)	(1,0)	(1,0)	(1,0)	
L1D -494>	(2,1)	(1,0)	(1,0)	(1,0)	(1,0)	(1,0)	(1,0)	(1,0)	(1,0)	(1,0)	(1,0)	(1,0)	(1,0)	(1,0)	(1,0)	(1,0)	
L1D -493>	(1,2)	(3,1)	(1,0)	(1,0)	(1,0)	(1,0)	(1,0)	(1,0)	(1,0)	(1,0)	(1,0)	(1,0)	(1,0)	(1,0)	(1,0)	(1,0)	
L1D -492>	(5,2)	(2,2)	(363,1)	(1,0)	(1,0)	(1,0)	(1,0)	(1,0)	(1,0)	(1,0)	(1,0)	(1,0)	(1,0)	(1,0)	(1,0)	(1,0)	
L1D -491>	(3,1)	(1,0)	(1,0)	(1,0)	(1,0)	(1,0)	(1,0)	(1,0)	(1,0)	(1,0)	(1,0)	(1,0)	(1,0)	(1,0)	(1,0)	(1,0)	
L1D -490>	(1,0)	(1,0)	(1,0)	(1,0)	(1,0)	(1,0)	(1,0)	(1,0)	(1,0)	(1,0)	(1,0)	(1,0)	(1,0)	(1,0)	(1,0)	(1,0)	
L1D -489>	(2,2)	(1,0)	(1,0)	(1,0)	(1,0)	(1,0)	(1,0)	(1,0)	(1,0)	(1,0)	(1,0)	(1,0)	(1,0)	(1,0)	(1,0)	(1,0)	
L1D -488>	(4,4)	(432,1)	(6,2)	(2,2)	(490,1)	(1,0)	(1,0)	(1,0)	(1,0)	(1,0)	(1,0)	(1,0)	(1,0)	(1,0)	(1,0)	(1,0)	
L1D -487>	(3,11)	(18,2)	(5,1)	(1,0)	(1,0)	(1,0)	(1,0)	(1,0)	(1,0)	(1,0)	(1,0)	(1,0)	(1,0)	(1,0)	(1,0)	(1,0)	
L1D -486>	(54,90)	(488,38)	(2,41)	(434,2)	(432,8)	(56,2)	(490,3)	(1,0)	(1,0)	(1,0)	(1,0)	(1,0)	(1,0)	(1,0)	(1,0)	(1,0)	
L1D -485>	(1,0)	(1,0)	(1,0)	(1,0)	(1,0)	(1,0)	(1,0)	(1,0)	(1,0)	(1,0)	(1,0)	(1,0)	(1,0)	(1,0)	(1,0)	(1,0)	
L1D -484>	(486,121)	(2,10)	(166,2)	(110,1)	(4,1)	(121,1)	(432,2)	(54,4)	(363,2)	(430,5)	(1,0)	(1,0)	(1,0)	(1,0)	(1,0)	(1,0)	
L1D -483>	(1,0)	(1,0)	(1,0)	(1,0)	(1,0)	(1,0)	(1,0)	(1,0)	(1,0)	(1,0)	(1,0)	(1,0)	(1,0)	(1,0)	(1,0)	(1,0)	
L1D -482>	(486,9)	(484,22)	(-2,12)	(363,6)	(54,4)	(430,2)	(2,3)	(1,0)	(1,0)	(1,0)	(1,0)	(1,0)	(1,0)	(1,0)	(1,0)	(1,0)	
L1D -481>	(242,1)	(1,0)	(1,0)	(1,0)	(1,0)	(1,0)	(1,0)	(1,0)	(1,0)	(1,0)	(1,0)	(1,0)	(1,0)	(1,0)	(1,0)	(1,0)	
L1D -480>	(2,5)	(428,1)	(54,1)	(4,1)	(1,0)	(1,0)	(1,0)	(1,0)	(1,0)	(1,0)	(1,0)	(1,0)	(1,0)	(1,0)	(1,0)	(1,0)	
L1D -479>	(2,1)	(242,1)	(1,0)	(1,0)	(1,0)	(1,0)	(1,0)	(1,0)	(1,0)	(1,0)	(1,0)	(1,0)	(1,0)	(1,0)	(1,0)	(1,0)	
L1D -478>	(2,3)	(1,0)	(1,0)	(1,0)	(1,0)	(1,0)	(1,0)	(1,0)	(1,0)	(1,0)	(1,0)	(1,0)	(1,0)	(1,0)	(1,0)	(1,0)	
L1D -477>	(1,0)	(1,0)	(1,0)	(1,0)	(1,0)	(1,0)	(1,0)	(1,0)	(1,0)	(1,0)	(1,0)	(1,0)	(1,0)	(1,0)	(1,0)	(1,0)	
L1D -476>	(4,2)	(2,2)	(432,1)	(1,0)	(1,0)	(1,0)	(1,0)	(1,0)	(1,0)	(1,0)	(1,0)	(1,0)	(1,0)	(1,0)	(1,0)	(1,0)	
L1D -475>	(6,1)	(1,0)	(1,0)	(1,0)	(1,0)	(1,0)	(1,0)	(1,0)	(1,0)	(1,0)	(1,0)	(1,0)	(1,0)	(1,0)	(1,0)	(1,0)	
L1D -474>	(2,1)	(8,1)	(1,0)	(1,0)	(1,0)	(1,0)	(1,0)	(1,0)	(1,0)	(1,0)	(1,0)	(1,0)	(1,0)	(1,0)	(1,0)	(1,0)	
L1D -473>	(1,0)	(1,0)	(1,0)	(1,0)	(1,0)	(1,0)	(1,0)	(1,0)	(1,0)	(1,0)	(1,0)	(1,0)	(1,0)	(1,0)	(1,0)	(1,0)	
L1D -472>	(8,1)	(4,1)	(2,1)	(6,1)	(3,1)	(1,0)	(1,0)	(1,0)	(1,0)	(1,0)	(1,0)	(1,0)	(1,0)	(1,0)	(1,0)	(1,0)	
L1D -471>	(1,0)	(1,0)	(1,0)	(1,0)	(1,0)	(1,0)	(1,0)	(1,0)	(1,0)	(1,0)	(1,0)	(1,0)	(1,0)	(1,0)	(1,0)	(1,0)	
L1D -470>	(378,1)	(-1,1)	(326,1)	(1,0)	(1,0)	(1,0)	(1,0)	(1,0)	(1,0)	(1,0)	(1,0)	(1,0)	(1,0)	(1,0)	(1,0)	(1,0)	
L1D -469>	(1,0)	(1,0)	(1,0)	(1,0)	(1,0)	(1,0)	(1,0)	(1,0)	(1,0)	(1,0)	(1,0)	(1,0)	(1,0)	(1,0)	(1,0)	(1,0)	
L1D -468>	(7,1)	(1,0)	(1,0)	(1,0)	(1,0)	(1,0)	(1,0)	(1,0)	(1,0)	(1,0)	(1,0)	(1,0)	(1,0)	(1,0)	(1,0)	(1,0)	
L1D -467>	(2,2)	(3,1)	(4,1)	(1,0)	(1,0)	(1,0)	(1,0)	(1,0)	(1,0)	(1,0)	(1,0)	(1,0)	(1,0)	(1,0)	(1,0)	(1,0)	
L1D -466>	(2,6)	(4,1)	(3,1)	(1,0)	(1,0)	(1,0)	(1,0)	(1,0)	(1,0)	(1,0)	(1,0)	(1,0)	(1,0)	(1,0)	(1,0)	(1,0)	
L1D -465>	(4,2)	(1,0)	(1,0)	(1,0)	(1,0)	(1,0)	(1,0)	(1,0)	(1,0)	(1,0)	(1,0)	(1,0)	(1,0)	(1,0)	(1,0)	(1,0)	
L1D -464>	(2,5)	(8,8)	(1,1)	(4,1)	(1,0)	(1,0)	(1,0)	(1,0)	(1,0)	(1,0)	(1,0)	(1,0)	(1,0)	(1,0)	(1,0)	(1,0)	
L1D -463>	(-1,2)	(432,1)	(1,0)	(1,0)	(1,0)	(1,0)	(1,0)	(1,0)	(1,0)	(1,0)	(1,0)	(1,0)	(1,0)	(1,0)	(1,0)	(1,0)	
L1D -462>	(4,1)	(6,1)	(1,0)	(1,0)	(1,0)	(1,0)	(1,0)	(1,0)	(1,0)	(1,0)	(1,0)	(1,0)	(1,0)	(1,0)	(1,0)	(1,0)	
L1D -461>	(5,1)	(1,0)	(1,0)	(1,0)	(1,0)	(1,0)	(1,0)	(1,0)	(1,0)	(1,0)	(1,0)	(1,0)	(1,0)	(1,0)	(1,0)	(1,0)	
L1D -460>	(1,0)	(1,0)	(1,0)	(1,0)	(1,0)	(1,0)	(1,0)	(1,0)	(1,0)	(1,0)	(1,0)	(1,0)	(1,0)	(1,0)	(1,0)	(1,0)	
L1D -459>	(-32,1)	(1,0)	(1,0)	(1,0)	(1,0)	(1,0)	(1,0)	(1,0)	(1,0)	(1,0)	(1,0)	(1,0)	(1,0)	(1,0)	(1,0)	(1,0)	
L1D -458>	(7,1)	(1,0)	(1,0)	(1,0)	(1,0)	(1,0)	(1,0)	(1,0)	(1,0)	(1,0)	(1,0)	(1,0)	(1,0)	(1,0)	(1,0)	(1,0)	
L1D -457>	(1,2)	(8,6)	(2,6)	(3,1)	(6,1)	(4,1)	(1,0)	(1,0)	(1,0)	(1,0)	(1,0)	(1,0)	(1,0)	(1,0)	(1,0)	(1,0)	
L1D -456>	(1,4)	(2,2)	(5,1)	(1,0)	(1,0)	(1,0)	(1,0)	(1,0)	(1,0)	(1,0)	(1,0)	(1,0)	(1,0)	(1,0)	(1,0)	(1,0)	
L1D -455>	(1,0)	(1,0)	(1,0)	(1,0)	(1,0)	(1,0)	(1,0)	(1,0)	(1,0)	(1,0)	(1,0)	(1,0)	(1,0)	(1,0)	(1,0)	(1,0)	
L1D -454>	(2,1)	(35,4)	(1,1)	(121,1)	(1,0)	(1,0)	(1,0)	(1,0)	(1,0)	(1,0)	(1,0)	(1,0)	(1,0)	(1,0)	(1,0)	(1,0)	
L1D -453>	(6,1)	(1,0)	(1,0)	(1,0)	(1,0)	(1,0)	(1,0)	(1,0)	(1,0)	(1,0)	(1,0)	(1,0)	(1,0)	(1,0)	(1,0)	(1,0)	
L1D -452>	(1,0)	(1,0)	(1,0)	(1,0)	(1,0)	(1,0)	(1,0)	(1,0)	(1,0)	(1,0)	(1,0)	(1,0)	(1,0)	(1,0)	(1,0)	(1,0)	
L1D -451>	(1,1)	(-1,7)	(1,0)	(1,0)	(1,0)	(1,0)	(1,0)	(1,0)	(1,0)	(1,0)	(1,0)	(1,0)	(1,0)	(1,0)	(1,0)	(1,0)	
L1D -450>	(1,8)	(2,8)	(4,5)	(1,0)	(1,0)	(1,0)	(1,0)	(1,0)	(1,0)	(1,0)	(1,0)	(1,0)	(1,0)	(1,0)	(1,0)	(1,0)	
L1D -449>	(2,2)	(1,0)	(1,0)	(1,0)	(1,0)	(1,0)	(1,0)	(1,0)	(1,0)	(1,0)	(1,0)	(1,0)	(1,0)	(1,0)	(1,0)	(1,0)	
L1D -448>	(35,3)	(6,1)	(1,0)	(1,0)	(1,0)	(1,0)	(1,0)	(1,0)	(1,0)	(1,0)	(1,0)	(1,0)	(1,0)	(1,0)	(1,0)	(1,0)	
L1D -447>	(0,1)	(8,1)	(1,0)	(1,0)	(1,0)	(1,0)	(1,0)	(1,0)	(1,0)	(1,0)	(1,0)	(1,0)	(1,0)	(1,0)	(1,0)	(1,0)	
L1D -446>	(2,10)	(4,5)	(1,0)	(1,0)	(1,0)	(1,0)	(1,0)	(1,0)	(1,0)	(1,0)	(1,0)	(1,0)	(1,0)	(1,0)	(1,0)	(1,0)	
L1D -445>	(1,0)	(1,0)	(1,0)	(1,0)	(1,0)	(1,0)	(1,0)	(1,0)	(1,0)	(1,0)	(1,0)	(1,0)	(1,0)	(1,0)	(1,0)	(1,0)	
L1D -444>	(432,1)	(1,0)	(1,0)	(1,0)	(1,0)	(1,0)	(1,0)	(1,0)	(1,0)	(1,0)	(1,0)	(1,0)	(1,0)	(1,0)	(1,0)	(1,0)	
L1D -443>	(10,1)	(5,1)	(1,0)	(1,0)	(1,0)	(1,0)	(1,0)	(1,0)	(1,0)	(1,0)	(1,0)	(1,0)	(1,0)	(1,0)	(1,0)	(1,0)	
L1D -442>	(1,1)	(2,7)	(4,1)	(1,0)	(1,0)	(1,0)	(1,0)	(1,0)	(1,0)	(1,0)	(1,0)	(1,0)	(1,0)	(1,0)	(1,0)	(1,0)	
L1D -441>	(1,18)	(2,9)	(4,4)	(8,1)	(1,0)	(1,0)	(1,0)	(1,0)	(1,0)	(1,0)	(1,0)	(1,0)	(1,0)	(1,0)	(1,0)	(1,0)	
L1D -440>	(2,5)	(432,3)	(442,4)	(8,6)	(1,3)	(4,2)	(1,0)	(1,0)	(1,0)	(1,0)	(1,0)	(1,0)	(1,0)	(1,0)	(1,0)	(1,0)	
L1D -439>	(441,8)	(1,5)	(8,4)	(2,4)	(1,0)	(1,0)	(1,0)	(1,0)	(1,0)	(1,0)	(1,0)	(1,0)	(1,0)	(1,0)	(1,0)	(1,0)	
L1D -438>	(1,20)	(2,8)	(432,2)	(5,6)	(6,7)	(242,1)	(1,0)	(1,0)	(1,0)	(1,0)	(1,0)	(1,0)	(1,0)	(1,0)	(1,0)	(1,0)	
L1D -437>	(1,9)	(438,2)	(-14,1)	(1,0)	(1,0)	(1,0)	(1,0)	(1,0)	(1,0)	(1,0)	(1,0)	(1,0)	(1,0)	(1,0)	(1,0)	(1,0)	
L1D -436>	(2,13)	(438,10)	(8,1)	(432,2)	(4,15)	(437,1)	(3,2)	(6,1)	(54,1)	(1,1)	(1,0)	(1,0)	(1,0)	(1,0)	(1,0)	(1,0)	
L1D -435>	(436,1)	(1,11)	(437,4)	(438,6)	(2,11)	(432,11)	(4,4)	(3,10)	(5,6)	(9,1)	(10,1)	(1,0)	(1,0)	(1,0)	(1,0)	(1,0)	
L1D -434>	(1,9)	(435,12)	(2,53)	(436,68)	(432,0)	(438,12)	(4,4)	(6,3)	(440,1)	(1,0)	(1,0)	(1,0)	(1,0)	(1,0)	(1,0)	(1,0)	
L1D -433>	(2,117)	(435,58)	(432,87)	(1,35)	(434,31)	(3,7)	(4,5)	(6,1)	(436,1)	(-14,0)	(437,1)	(1,0)	(1,0)	(1,0)	(1,0)	(1,0)	
L1D -432>	(434,78)	(2,7)	(6,0)	(486,0)	(54,1)	(436,7)	(1,3)	(380,2)	(56,0)	(-1,0)	(433,4)	(431,0)	(4,0)	(440,0)	(378,0)	(438,2)	
L1D -431>	(433,96)	(432,62)	(54,0)	(2,4)	(112,0)	(429,0)	(3,0)	(434,1)	(1,6)	(1,0)	(1,0)	(1,0)	(1,0)	(1,0)	(1,0)	(1,0)	
L1D -430>	(432,83)	(2,4)	(-3,0)	(434,0)	(-1,2)	(376,0)	(431,0)	(6,0)	(378,1)	(-52,0)	(54,3)	(433,0)	(1,1)	(3,0)	(8,1)	(-54,0)	
L1D -429>	(-2,10)	(2,23)	(430,15)	(432,109)	(1,9)	(431,70)	(433,45)	(374,3)	(375,7)	(4,2)	(3,6)	(-3,2)	(-1,6)	(5,1)	(54,1)	(1,0)	
L1D -428>	(2,4)	(429,3)	(482,1)	(1,2)	(432,64)	(430,12)	(431,1)	(54,2)	(6,1)	(-3,4)	(4,2)	(376,2)	(-1,0)	(434,3)	(8,0)	(50,1)	
L1D -427>	(2,6)	(373,9)	(433,5)	(428,15)	(432,22)	(-4,4)	(-1,2)	(1,8)	(430,5)	(-3,6)	(429,8)	(4,2)	(372,3)	(431,1)	(8,1)	(3,1)	
L1D -426>	(2,76)	(1,2)	(428,3)	(432,125)	(4,4)	(430,8)	(434,1)	(429,5)	(7,1)	(-14,1)	(6,2)	(8,2)	(431,2)	(1,0)	(1,0)	(1,0)	
L1D -425>	(426,1)	(1,0)	(1,0)	(1,0)	(1,0)	(1,0)	(1,0)	(1,0)	(1,0)	(1,0)	(1,0)	(1,0)	(1,0)	(1,0)	(1,0)	(1,0)	
L1D -424>	(426,1)	(2,12)	(1,2)	(425,0)	(430,2)	(432,64)	(8,3)	(6,1)	(242,0)	(5,0)	(14,0)	(4,2)	(1,0)	(1,0)	(1,0)	(1,0)	
L1D -423>	(2,1)	(1,0)	(1,0)	(1,0)	(1,0)	(1,0)	(1,0)	(1,0)	(1,0)	(1,0)	(1,0)	(1,0)	(1,0)	(1,0)	(1,0)	(1,0)	
L1D -422>	(2,3)	(432,8)	(422,8)	(4,6)	(8,1)	(428,2)	(-4,3)	(1,1)	(6,1)	(424,1)	(1,0)	(1,0)	(1,0)	(1,0)	(1,0)	(1,0)	
L1D -421>	(1,1)	(432,2)	(3,5)	(5,1)	(1,0)	(1,0)	(1,0)	(1,0)	(1,0)	(1,0)	(1,0)	(1,0)	(1,0)	(1,0)	(1,0)	(1,0)	
L1D -420>	(4,3)	(2,4)	(432,2)	(8,1)	(3,2)	(363,1)	(325,1)	(-4,1)	(1,0)	(1,0)	(1,0)	(1,0)	(1,0)	(1,0)	(1,0)	(1,0)	
L1D -419>	(3,4)	(326,1)	(1,0)	(1,0)	(1,0)	(1,0)	(1,0)	(1,0)	(1,0)	(1,0)	(1,0)	(1,0)	(1,0)	(1,0)	(1,0)	(1,0)	
L1D -418>	(2,29)	(1,6)	(4,4)	(3,1)	(16,1)	(432,1)	(1,0)	(1,0)	(1,0)	(1,0)	(1,0)	(1,0)	(1,0)	(1,0)	(1,0)	(1,0)	
L1D -417>	(416,3)	(3,2)	(2,1)	(1,0)	(1,0)	(1,0)	(1,0)	(1,0)	(1,0)	(1,0)	(1,0)	(1,0)	(1,0)	(1,0)	(1,0)	(1,0)	
L1D -416>	(432,4)	(0,3)	(2,11)	(430,1)	(3,1)	(1,1)	(8,1)	(1,0)	(1,0)	(1,0)	(1,0)	(1,0)	(1,0)	(1,0)	(1,0)	(1,0)	
L1D -415>	(4,1)	(1,0)	(1,0)	(1,0)	(1,0)	(1,0)	(1,0)	(1,0)	(1,0)	(1,0)	(1,0)	(1,0)	(1,0)	(1,0)	(1,0)	(1,0)	
L1D -414>	(0,46)	(2,9)	(412,7)	(1,0)	(1,0)	(1,0)	(1,0)	(1,0)	(1,0)	(1,0)	(1,0)	(1,0)	(1,0)	(1,0)	(1,0)	(1,0)	
L1D -413>	(407,3)	(54,2)	(2,1)	(4,1)	(1,0)	(1,0)	(1,0)	(1,0)	(1,0)	(1,0)	(1,0)	(1,0)	(1,0)	(1,0)	(1,0)	(1,0)	
L1D -412>	(2,2)	(4,1)	(1,0)	(1,0)	(1,0)	(1,0)	(1,0)	(1,0)	(1,0)	(1,0)	(1,0)	(1,0)	(1,0)	(1,0)	(1,0)	(1,0)	
L1D -411>	(1,0)	(1,0)	(1,0)	(1,0)	(1,0)	(1,0)	(1,0)	(1,0)	(1,0)	(1,0)	(1,0)	(1,0)	(1,0)	(1,0)	(1,0)	(1,0)	
L1D -410>	(416,1)	(5,1)	(6,1)	(1,0)	(1,0)	(1,0)	(1,0)	(1,0)	(1,0)	(1,0)	(1,0)	(1,0)	(1,0)	(1,0)	(1,0)	(1,0)	
L1D -409>	(1,4)	(6,5)	(413,4)	(8,2)	(1,0)	(1,0)	(1,0)	(1,0)	(1,0)	(1,0)	(1,0)	(1,0)	(1,0)	(1,0)	(1,0)	(1,0)	
L1D -408>	(1,1)	(3,2)	(2,1)	(1,0)	(1,0)	(1,0)	(1,0)	(1,0)	(1,0)	(1,0)	(1,0)	(1,0)	(1,0)	(1,0)	(1,0)	(1,0)	
L1D -407>	(3,2)	(432,1)	(1,0)	(1,0)	(1,0)	(1,0)	(1,0)	(1,0)	(1,0)	(1,0)	(1,0)	(1,0)	(1,0)	(1,0)	(1,0)	(1,0)	
L1D -406>	(0,5)	(1,0)	(1,0)	(1,0)	(1,0)	(1,0)	(1,0)	(1,0)	(1,0)	(1,0)	(1,0)	(1,0)	(1,0)	(1,0)	(1,0)	(1,0)	
L1D -405>	(10,1)	(1,0)	(1,0)	(1,0)	(1,0)	(1,0)	(1,0)	(1,0)	(1,0)	(1,0)	(1,0)	(1,0)	(1,0)	(1,0)	(1,0)	(1,0)	
L1D -404>	(1,2)	(1,0)	(1,0)	(1,0)	(1,0)	(1,0)	(1,0)	(1,0)	(1,0)	(1,0)	(1,0)	(1,0)	(1,0)	(1,0)	(1,0)	(1,0)	
L1D -403>	(1,0)	(1,0)	(1,0)	(1,0)	(1,0)	(1,0)	(1,0)	(1,0)	(1,0)	(1,0)	(1,0)	(1,0)	(1,0)	(1,0)	(1,0)	(1,0)	
L1D -402>	(2,1)	(6,1)	(1,0)	(1,0)	(1,0)	(1,0)	(1,0)	(1,0)	(1,0)	(1,0)	(1,0)	(1,0)	(1,0)	(1,0)	(1,0)	(1,0)	
L1D -401>	(4,1)	(3,1)	(1,0)	(1,0)	(1,0)	(1,0)	(1,0)	(1,0)	(1,0)	(1,0)	(1,0)	(1,0)	(1,0)	(1,0)	(1,0)	(1,0)	
L1D -400>	(3,1)	(1,0)	(1,0)	(1,0)	(1,0)	(1,0)	(1,0)	(1,0)	(1,0)	(1,0)	(1,0)	(1,0)	(1,0)	(1,0)	(1,0)	(1,0)	
L1D -399>	(390,7)	(8,6)	(6,1)	(4,1)	(1,0)	(1,0)	(1,0)	(1,0)	(1,0)	(1,0)	(1,0)	(1,0)	(1,0)	(1,0)	(1,0)	(1,0)	
L1D -398>	(1,0)	(1,0)	(1,0)	(1,0)	(1,0)	(1,0)	(1,0)	(1,0)	(1,0)	(1,0)	(1,0)	(1,0)	(1,0)	(1,0)	(1,0)	(1,0)	
L1D -397>	(-2,1)	(399,1)	(3,2)	(1,0)	(1,0)	(1,0)	(1,0)	(1,0)	(1,0)	(1,0)	(1,0)	(1,0)	(1,0)	(1,0)	(1,0)	(1,0)	
L1D -396>	(1,1)	(2,2)	(1,0)	(1,0)	(1,0)	(1,0)	(1,0)	(1,0)	(1,0)	(1,0)	(1,0)	(1,0)	(1,0)	(1,0)	(1,0)	(1,0)	
L1D -395>	(2,2)	(6,1)	(4,1)	(1,0)	(1,0)	(1,0)	(1,0)	(1,0)	(1,0)	(1,0)	(1,0)	(1,0)	(1,0)	(1,0)	(1,0)	(1,0)	
L1D -394>	(1,1)	(2,33)	(8,11)	(4,9)	(399,6)	(6,6)	(1,0)	(1,0)	(1,0)	(1,0)	(1,0)	(1,0)	(1,0)	(1,0)	(1,0)	(1,0)	
L1D -393>	(2,4)	(6,4)	(399,1)	(8,1)	(1,0)	(1,0)	(1,0)	(1,0)	(1,0)	(1,0)	(1,0)	(1,0)	(1,0)	(1,0)	(1,0)	(1,0)	
L1D -392>	(2,18)	(8,40)	(1,12)	(4,21)	(6,26)	(3,1)	(363,1)	(1,0)	(1,0)	(1,0)	(1,0)	(1,0)	(1,0)	(1,0)	(1,0)	(1,0)	
L1D -391>	(8,1)	(1,0)	(1,0)	(1,0)	(1,0)	(1,0)	(1,0)	(1,0)	(1,0)	(1,0)	(1,0)	(1,0)	(1,0)	(1,0)	(1,0)	(1,0)	
L1D -390>	(2,5)	(8,8)	(39,1)	(1,0)	(1,0)	(1,0)	(1,0)	(1,0)	(1,0)	(1,0)	(1,0)	(1,0)	(1,0)	(1,0)	(1,0)	(1,0)	
L1D -389>	(8,7)	(2,1)	(121,1)	(1,0)	(1,0)	(1,0)	(1,0)	(1,0)	(1,0)	(1,0)	(1,0)	(1,0)	(1,0)	(1,0)	(1,0)	(1,0)	
L1D -388>	(2,2)	(1,0)	(1,0)	(1,0)	(1,0)	(1,0)	(1,0)	(1,0)	(1,0)	(1,0)	(1,0)	(1,0)	(1,0)	(1,0)	(1,0)	(1,0)	
L1D -387>	(1,1)	(2,7)	(1,0)	(1,0)	(1,0)	(1,0)	(1,0)	(1,0)	(1,0)	(1,0)	(1,0)	(1,0)	(1,0)	(1,0)	(1,0)	(1,0)	
L1D -386>	(2,5)	(42,5)	(4,4)	(8,1)	(11,2)	(6,1)	(7,1)	(1,0)	(1,0)	(1,0)	(1,0)	(1,0)	(1,0)	(1,0)	(1,0)	(1,0)	
L1D -385>	(1,0)	(1,0)	(1,0)	(1,0)	(1,0)	(1,0)	(1,0)	(1,0)	(1,0)	(1,0)	(1,0)	(1,0)	(1,0)	(1,0)	(1,0)	(1,0)	
L1D -384>	(2,13)	(4,3)	(1,2)	(6,1)	(1,0)	(1,0)	(1,0)	(1,0)	(1,0)	(1,0)	(1,0)	(1,0)	(1,0)	(1,0)	(1,0)	(1,0)	
L1D -383>	(2,1)	(4,1)	(1,0)	(1,0)	(1,0)	(1,0)	(1,0)	(1,0)	(1,0)	(1,0)	(1,0)	(1,0)	(1,0)	(1,0)	(1,0)	(1,0)	
L1D -382>	(2,3)	(4,2)	(6,1)	(3,1)	(1,0)	(1,0)	(1,0)	(1,0)	(1,0)	(1,0)	(1,0)	(1,0)	(1,0)	(1,0)	(1,0)	(1,0)	
L1D -381>	(54,4)	(1,0)	(1,0)	(1,0)	(1,0)	(1,0)	(1,0)	(1,0)	(1,0)	(1,0)	(1,0)	(1,0)	(1,0)	(1,0)	(1,0)	(1,0)	
L1D -380>	(2,6)	(4,3)	(-52,2)	(382,1)	(6,1)	(1,0)	(1,0)	(1,0)	(1,0)	(1,0)	(1,0)	(1,0)	(1,0)	(1,0)	(1,0)	(1,0)	
L1D -379>	(0,1)	(1,0)	(1,0)	(1,0)	(1,0)	(1,0)	(1,0)	(1,0)	(1,0)	(1,0)	(1,0)	(1,0)	(1,0)	(1,0)	(1,0)	(1,0)	
L1D -378>	(380,113)	(432,5)	(-52,1)	(2,7)	(4,0)	(382,0)	(-54,0)	(-50,0)	(-117,0)	(1,0)	(1,0)	(1,0)	(1,0)	(1,0)	(1,0)	(1,0)	
L1D -377>	(1,32)	(432,6)	(2,53)	(5,3)	(6,11)	(376,2)	(4,6)	(3,4)	(8,2)	(1,0)	(1,0)	(1,0)	(1,0)	(1,0)	(1,0)	(1,0)	
L1D -376>	(54,2)	(431,6)	(1,7)	(-54,24)	(432,117)	(-52,38)	(2,27)	(378,120)	(380,1)	(-56,1)	(4,11)	(3,4)	(430,5)	(5,4)	(325,1)	(433,1)	
L1D -375>	(1,15)	(376,1)	(430,20)	(-54,1)	(2,1)	(4,2)	(432,1)	(5,1)	(6,1)	(326,1)	(1,0)	(1,0)	(1,0)	(1,0)	(1,0)	(1,0)	
L1D -374>	(432,59)	(378,11)	(376,5)	(6,1)	(54,21)	(1,4)	(486,1)	(-54,2)	(380,1)	(-58,3)	(-52,1)	(431,4)	(428,4)	(2,4)	(430,2)	(375,1)	
L1D -373>	(1,1)	(382,1)	(374,1)	(2,7)	(428,3)	(432,2)	(375,1)	(366,5)	(4,1)	(1,0)	(1,0)	(1,0)	(1,0)	(1,0)	(1,0)	(1,0)	
L1D -372>	(374,6)	(2,3)	(428,1)	(429,15)	(373,2)	(4,1)	(1,1)	(431,2)	(8,1)	(432,1)	(1,0)	(1,0)	(1,0)	(1,0)	(1,0)	(1,0)	
L1D -371>	(-31,1)	(431,4)	(430,1)	(375,9)	(432,5)	(374,3)	(1,3)	(373,3)	(370,5)	(426,2)	(376,1)	(2,2)	(-36,3)	(372,1)	(377,2)	(3,1)	
L1D -370>	(39,1)	(427,1)	(4,1)	(2,3)	(1,0)	(1,0)	(1,0)	(1,0)	(1,0)	(1,0)	(1,0)	(1,0)	(1,0)	(1,0)	(1,0)	(1,0)	
L1D -369>	(2,1)	(370,1)	(-3,1)	(10,1)	(1,0)	(1,0)	(1,0)	(1,0)	(1,0)	(1,0)	(1,0)	(1,0)	(1,0)	(1,0)	(1,0)	(1,0)	
L1D -368>	(-4,1)	(2,35)	(8,1)	(1,0)	(1,0)	(1,0)	(1,0)	(1,0)	(1,0)	(1,0)	(1,0)	(1,0)	(1,0)	(1,0)	(1,0)	(1,0)	
L1D -367>	(-36,1)	(1,0)	(1,0)	(1,0)	(1,0)	(1,0)	(1,0)	(1,0)	(1,0)	(1,0)	(1,0)	(1,0)	(1,0)	(1,0)	(1,0)	(1,0)	
L1D -366>	(2,32)	(4,7)	(0,1)	(6,2)	(42,5)	(8,1)	(1,0)	(1,0)	(1,0)	(1,0)	(1,0)	(1,0)	(1,0)	(1,0)	(1,0)	(1,0)	
L1D -365>	(-36,4)	(1,0)	(1,0)	(1,0)	(1,0)	(1,0)	(1,0)	(1,0)	(1,0)	(1,0)	(1,0)	(1,0)	(1,0)	(1,0)	(1,0)	(1,0)	
L1D -364>	(2,15)	(4,2)	(8,1)	(1,1)	(1,0)	(1,0)	(1,0)	(1,0)	(1,0)	(1,0)	(1,0)	(1,0)	(1,0)	(1,0)	(1,0)	(1,0)	
L1D -363>	(242,56)	(121,16)	(0,9)	(-121,10)	(1,2)	(365,15)	(2,11)	(484,7)	(-113,1)	(272,1)	(-81,1)	(133,1)	(347,1)	(1,0)	(1,0)	(1,0)	
L1D -362>	(2,6)	(432,8)	(8,1)	(1,0)	(1,0)	(1,0)	(1,0)	(1,0)	(1,0)	(1,0)	(1,0)	(1,0)	(1,0)	(1,0)	(1,0)	(1,0)	
L1D -361>	(0,2)	(363,8)	(242,4)	(1,5)	(1,0)	(1,0)	(1,0)	(1,0)	(1,0)	(1,0)	(1,0)	(1,0)	(1,0)	(1,0)	(1,0)	(1,0)	
L1D -360>	(2,10)	(4,5)	(8,2)	(326,1)	(1,0)	(1,0)	(1,0)	(1,0)	(1,0)	(1,0)	(1,0)	(1,0)	(1,0)	(1,0)	(1,0)	(1,0)	
L1D -359>	(356,1)	(8,1)	(346,1)	(1,1)	(1,0)	(1,0)	(1,0)	(1,0)	(1,0)	(1,0)	(1,0)	(1,0)	(1,0)	(1,0)	(1,0)	(1,0)	
L1D -358>	(2,1)	(4,2)	(8,4)	(6,1)	(1,0)	(1,0)	(1,0)	(1,0)	(1,0)	(1,0)	(1,0)	(1,0)	(1,0)	(1,0)	(1,0)	(1,0)	
L1D -357>	(359,2)	(1,0)	(1,0)	(1,0)	(1,0)	(1,0)	(1,0)	(1,0)	(1,0)	(1,0)	(1,0)	(1,0)	(1,0)	(1,0)	(1,0)	(1,0)	
L1D -356>	(2,37)	(8,11)	(6,3)	(4,40)	(42,1)	(35,1)	(359,1)	(1,0)	(1,0)	(1,0)	(1,0)	(1,0)	(1,0)	(1,0)	(1,0)	(1,0)	
L1D -355>	(-11,1)	(2,2)	(1,0)	(1,0)	(1,0)	(1,0)	(1,0)	(1,0)	(1,0)	(1,0)	(1,0)	(1,0)	(1,0)	(1,0)	(1,0)	(1,0)	
L1D -354>	(2,16)	(4,14)	(347,1)	(6,4)	(8,2)	(1,0)	(1,0)	(1,0)	(1,0)	(1,0)	(1,0)	(1,0)	(1,0)	(1,0)	(1,0)	(1,0)	
L1D -353>	(2,2)	(1,0)	(1,0)	(1,0)	(1,0)	(1,0)	(1,0)	(1,0)	(1,0)	(1,0)	(1,0)	(1,0)	(1,0)	(1,0)	(1,0)	(1,0)	
L1D -352>	(1,2)	(4,12)	(6,4)	(2,20)	(8,5)	(1,0)	(1,0)	(1,0)	(1,0)	(1,0)	(1,0)	(1,0)	(1,0)	(1,0)	(1,0)	(1,0)	
L1D -351>	(2,1)	(1,0)	(1,0)	(1,0)	(1,0)	(1,0)	(1,0)	(1,0)	(1,0)	(1,0)	(1,0)	(1,0)	(1,0)	(1,0)	(1,0)	(1,0)	
L1D -350>	(6,2)	(4,4)	(356,5)	(2,1)	(1,0)	(1,0)	(1,0)	(1,0)	(1,0)	(1,0)	(1,0)	(1,0)	(1,0)	(1,0)	(1,0)	(1,0)	
L1D -349>	(2,1)	(54,1)	(1,0)	(1,0)	(1,0)	(1,0)	(1,0)	(1,0)	(1,0)	(1,0)	(1,0)	(1,0)	(1,0)	(1,0)	(1,0)	(1,0)	
L1D -348>	(4,4)	(2,4)	(1,0)	(1,0)	(1,0)	(1,0)	(1,0)	(1,0)	(1,0)	(1,0)	(1,0)	(1,0)	(1,0)	(1,0)	(1,0)	(1,0)	
L1D -347>	(350,1)	(4,1)	(6,1)	(8,1)	(1,0)	(1,0)	(1,0)	(1,0)	(1,0)	(1,0)	(1,0)	(1,0)	(1,0)	(1,0)	(1,0)	(1,0)	
L1D -346>	(42,6)	(2,1)	(3,2)	(54,1)	(8,1)	(1,0)	(1,0)	(1,0)	(1,0)	(1,0)	(1,0)	(1,0)	(1,0)	(1,0)	(1,0)	(1,0)	
L1D -345>	(121,1)	(1,0)	(1,0)	(1,0)	(1,0)	(1,0)	(1,0)	(1,0)	(1,0)	(1,0)	(1,0)	(1,0)	(1,0)	(1,0)	(1,0)	(1,0)	
L1D -344>	(6,1)	(2,1)	(4,1)	(8,1)	(1,0)	(1,0)	(1,0)	(1,0)	(1,0)	(1,0)	(1,0)	(1,0)	(1,0)	(1,0)	(1,0)	(1,0)	
L1D -343>	(8,1)	(331,1)	(1,0)	(1,0)	(1,0)	(1,0)	(1,0)	(1,0)	(1,0)	(1,0)	(1,0)	(1,0)	(1,0)	(1,0)	(1,0)	(1,0)	
L1D -342>	(2,19)	(4,6)	(8,5)	(1,0)	(1,0)	(1,0)	(1,0)	(1,0)	(1,0)	(1,0)	(1,0)	(1,0)	(1,0)	(1,0)	(1,0)	(1,0)	
L1D -341>	(2,2)	(6,5)	(4,6)	(8,6)	(1,0)	(1,0)	(1,0)	(1,0)	(1,0)	(1,0)	(1,0)	(1,0)	(1,0)	(1,0)	(1,0)	(1,0)	
L1D -340>	(2,14)	(4,6)	(6,2)	(8,1)	(1,0)	(1,0)	(1,0)	(1,0)	(1,0)	(1,0)	(1,0)	(1,0)	(1,0)	(1,0)	(1,0)	(1,0)	
L1D -339>	(1,0)	(1,0)	(1,0)	(1,0)	(1,0)	(1,0)	(1,0)	(1,0)	(1,0)	(1,0)	(1,0)	(1,0)	(1,0)	(1,0)	(1,0)	(1,0)	
L1D -338>	(2,2)	(8,1)	(1,0)	(1,0)	(1,0)	(1,0)	(1,0)	(1,0)	(1,0)	(1,0)	(1,0)	(1,0)	(1,0)	(1,0)	(1,0)	(1,0)	
L1D -337>	(336,2)	(1,0)	(1,0)	(1,0)	(1,0)	(1,0)	(1,0)	(1,0)	(1,0)	(1,0)	(1,0)	(1,0)	(1,0)	(1,0)	(1,0)	(1,0)	
L1D -336>	(2,10)	(0,2)	(4,2)	(8,10)	(6,5)	(1,0)	(1,0)	(1,0)	(1,0)	(1,0)	(1,0)	(1,0)	(1,0)	(1,0)	(1,0)	(1,0)	
L1D -335>	(363,2)	(-11,1)	(1,0)	(1,0)	(1,0)	(1,0)	(1,0)	(1,0)	(1,0)	(1,0)	(1,0)	(1,0)	(1,0)	(1,0)	(1,0)	(1,0)	
L1D -334>	(1,0)	(1,0)	(1,0)	(1,0)	(1,0)	(1,0)	(1,0)	(1,0)	(1,0)	(1,0)	(1,0)	(1,0)	(1,0)	(1,0)	(1,0)	(1,0)	
L1D -333>	(327,2)	(54,1)	(342,1)	(0,1)	(1,0)	(1,0)	(1,0)	(1,0)	(1,0)	(1,0)	(1,0)	(1,0)	(1,0)	(1,0)	(1,0)	(1,0)	
L1D -332>	(54,1)	(5,1)	(1,1)	(1,0)	(1,0)	(1,0)	(1,0)	(1,0)	(1,0)	(1,0)	(1,0)	(1,0)	(1,0)	(1,0)	(1,0)	(1,0)	
L1D -331>	(1,0)	(1,0)	(1,0)	(1,0)	(1,0)	(1,0)	(1,0)	(1,0)	(1,0)	(1,0)	(1,0)	(1,0)	(1,0)	(1,0)	(1,0)	(1,0)	
L1D -330>	(54,2)	(336,4)	(2,1)	(6,1)	(1,0)	(1,0)	(1,0)	(1,0)	(1,0)	(1,0)	(1,0)	(1,0)	(1,0)	(1,0)	(1,0)	(1,0)	
L1D -329>	(1,0)	(1,0)	(1,0)	(1,0)	(1,0)	(1,0)	(1,0)	(1,0)	(1,0)	(1,0)	(1,0)	(1,0)	(1,0)	(1,0)	(1,0)	(1,0)	
L1D -328>	(8,1)	(4,1)	(1,0)	(1,0)	(1,0)	(1,0)	(1,0)	(1,0)	(1,0)	(1,0)	(1,0)	(1,0)	(1,0)	(1,0)	(1,0)	(1,0)	
L1D -327>	(4,1)	(0,1)	(1,0)	(1,0)	(1,0)	(1,0)	(1,0)	(1,0)	(1,0)	(1,0)	(1,0)	(1,0)	(1,0)	(1,0)	(1,0)	(1,0)	
L1D -326>	(326,71)	(2,25)	(0,13)	(325,1)	(1,0)	(1,0)	(1,0)	(1,0)	(1,0)	(1,0)	(1,0)	(1,0)	(1,0)	(1,0)	(1,0)	(1,0)	
L1D -325>	(325,69)	(0,15)	(6,1)	(326,1)	(1,0)	(1,0)	(1,0)	(1,0)	(1,0)	(1,0)	(1,0)	(1,0)	(1,0)	(1,0)	(1,0)	(1,0)	
L1D -324>	(-2,2)	(1,0)	(1,0)	(1,0)	(1,0)	(1,0)	(1,0)	(1,0)	(1,0)	(1,0)	(1,0)	(1,0)	(1,0)	(1,0)	(1,0)	(1,0)	
L1D -323>	(54,83)	(4,2)	(0,1)	(-2,2)	(1,0)	(1,0)	(1,0)	(1,0)	(1,0)	(1,0)	(1,0)	(1,0)	(1,0)	(1,0)	(1,0)	(1,0)	
L1D -322>	(0,1)	(4,1)	(-1,5)	(2,2)	(325,4)	(-44,1)	(6,1)	(8,1)	(438,1)	(1,0)	(1,0)	(1,0)	(1,0)	(1,0)	(1,0)	(1,0)	
L1D -321>	(2,24)	(-1,3)	(4,3)	(1,0)	(1,0)	(1,0)	(1,0)	(1,0)	(1,0)	(1,0)	(1,0)	(1,0)	(1,0)	(1,0)	(1,0)	(1,0)	
L1D -320>	(64,18)	(-1,24)	(2,56)	(6,3)	(433,6)	(486,1)	(1,9)	(-54,3)	(-2,7)	(8,3)	(432,5)	(4,7)	(54,2)	(1,0)	(1,0)	(1,0)	
L1D -319>	(64,26)	(2,19)	(0,3)	(4,2)	(8,5)	(6,9)	(10,1)	(1,0)	(1,0)	(1,0)	(1,0)	(1,0)	(1,0)	(1,0)	(1,0)	(1,0)	
L1D -318>	(2,8)	(4,7)	(-1,2)	(3,3)	(1,3)	(8,1)	(433,1)	(486,1)	(1,0)	(1,0)	(1,0)	(1,0)	(1,0)	(1,0)	(1,0)	(1,0)	
L1D -317>	(4,1)	(2,1)	(319,1)	(54,3)	(1,0)	(1,0)	(1,0)	(1,0)	(1,0)	(1,0)	(1,0)	(1,0)	(1,0)	(1,0)	(1,0)	(1,0)	
L1D -316>	(2,13)	(6,11)	(8,2)	(4,8)	(1,1)	(121,1)	(-1,1)	(-54,1)	(1,0)	(1,0)	(1,0)	(1,0)	(1,0)	(1,0)	(1,0)	(1,0)	
L1D -315>	(6,10)	(4,3)	(2,2)	(1,0)	(1,0)	(1,0)	(1,0)	(1,0)	(1,0)	(1,0)	(1,0)	(1,0)	(1,0)	(1,0)	(1,0)	(1,0)	
L1D -314>	(4,14)	(2,5)	(319,7)	(6,1)	(3,1)	(8,1)	(10,1)	(12,1)	(1,0)	(1,0)	(1,0)	(1,0)	(1,0)	(1,0)	(1,0)	(1,0)	
L1D -313>	(2,12)	(316,1)	(1,2)	(6,1)	(8,2)	(1,0)	(1,0)	(1,0)	(1,0)	(1,0)	(1,0)	(1,0)	(1,0)	(1,0)	(1,0)	(1,0)	
L1D -312>	(2,68)	(1,7)	(-54,8)	(0,1)	(8,4)	(4,6)	(6,1)	(1,0)	(1,0)	(1,0)	(1,0)	(1,0)	(1,0)	(1,0)	(1,0)	(1,0)	
L1D -311>	(2,2)	(1,0)	(1,0)	(1,0)	(1,0)	(1,0)	(1,0)	(1,0)	(1,0)	(1,0)	(1,0)	(1,0)	(1,0)	(1,0)	(1,0)	(1,0)	
L1D -310>	(62,9)	(2,48)	(10,9)	(4,12)	(1,2)	(6,2)	(8,1)	(1,0)	(1,0)	(1,0)	(1,0)	(1,0)	(1,0)	(1,0)	(1,0)	(1,0)	
L1D -309>	(1,0)	(1,0)	(1,0)	(1,0)	(1,0)	(1,0)	(1,0)	(1,0)	(1,0)	(1,0)	(1,0)	(1,0)	(1,0)	(1,0)	(1,0)	(1,0)	
L1D -308>	(6,2)	(4,4)	(2,12)	(8,1)	(5,1)	(1,1)	(1,0)	(1,0)	(1,0)	(1,0)	(1,0)	(1,0)	(1,0)	(1,0)	(1,0)	(1,0)	
L1D -307>	(-12,4)	(2,2)	(5,2)	(4,1)	(-11,2)	(1,0)	(1,0)	(1,0)	(1,0)	(1,0)	(1,0)	(1,0)	(1,0)	(1,0)	(1,0)	(1,0)	
L1D -306>	(-4,1)	(2,77)	(4,9)	(1,5)	(-3,1)	(313,5)	(42,5)	(6,2)	(1,0)	(1,0)	(1,0)	(1,0)	(1,0)	(1,0)	(1,0)	(1,0)	
L1D -305>	(2,7)	(1,0)	(1,0)	(1,0)	(1,0)	(1,0)	(1,0)	(1,0)	(1,0)	(1,0)	(1,0)	(1,0)	(1,0)	(1,0)	(1,0)	(1,0)	
L1D -304>	(4,15)	(2,8)	(6,1)	(1,0)	(1,0)	(1,0)	(1,0)	(1,0)	(1,0)	(1,0)	(1,0)	(1,0)	(1,0)	(1,0)	(1,0)	(1,0)	
L1D -303>	(291,1)	(2,1)	(14,1)	(1,0)	(1,0)	(1,0)	(1,0)	(1,0)	(1,0)	(1,0)	(1,0)	(1,0)	(1,0)	(1,0)	(1,0)	(1,0)	
L1D -302>	(2,2)	(1,0)	(1,0)	(1,0)	(1,0)	(1,0)	(1,0)	(1,0)	(1,0)	(1,0)	(1,0)	(1,0)	(1,0)	(1,0)	(1,0)	(1,0)	
L1D -301>	(54,5)	(6,1)	(8,1)	(1,0)	(1,0)	(1,0)	(1,0)	(1,0)	(1,0)	(1,0)	(1,0)	(1,0)	(1,0)	(1,0)	(1,0)	(1,0)	
L1D -300>	(4,2)	(54,2)	(2,2)	(1,0)	(1,0)	(1,0)	(1,0)	(1,0)	(1,0)	(1,0)	(1,0)	(1,0)	(1,0)	(1,0)	(1,0)	(1,0)	
L1D -299>	(39,1)	(2,2)	(8,1)	(1,1)	(1,0)	(1,0)	(1,0)	(1,0)	(1,0)	(1,0)	(1,0)	(1,0)	(1,0)	(1,0)	(1,0)	(1,0)	
L1D -298>	(8,1)	(-1,1)	(54,2)	(5,1)	(6,1)	(0,1)	(1,0)	(1,0)	(1,0)	(1,0)	(1,0)	(1,0)	(1,0)	(1,0)	(1,0)	(1,0)	
L1D -297>	(293,7)	(8,1)	(1,0)	(1,0)	(1,0)	(1,0)	(1,0)	(1,0)	(1,0)	(1,0)	(1,0)	(1,0)	(1,0)	(1,0)	(1,0)	(1,0)	
L1D -296>	(-8,1)	(2,2)	(8,1)	(42,1)	(4,1)	(1,0)	(1,0)	(1,0)	(1,0)	(1,0)	(1,0)	(1,0)	(1,0)	(1,0)	(1,0)	(1,0)	
L1D -295>	(1,0)	(1,0)	(1,0)	(1,0)	(1,0)	(1,0)	(1,0)	(1,0)	(1,0)	(1,0)	(1,0)	(1,0)	(1,0)	(1,0)	(1,0)	(1,0)	
L1D -294>	(4,1)	(1,1)	(1,0)	(1,0)	(1,0)	(1,0)	(1,0)	(1,0)	(1,0)	(1,0)	(1,0)	(1,0)	(1,0)	(1,0)	(1,0)	(1,0)	
L1D -293>	(11,1)	(287,4)	(2,1)	(1,0)	(1,0)	(1,0)	(1,0)	(1,0)	(1,0)	(1,0)	(1,0)	(1,0)	(1,0)	(1,0)	(1,0)	(1,0)	
L1D -292>	(121,1)	(1,0)	(1,0)	(1,0)	(1,0)	(1,0)	(1,0)	(1,0)	(1,0)	(1,0)	(1,0)	(1,0)	(1,0)	(1,0)	(1,0)	(1,0)	
L1D -291>	(0,1)	(4,1)	(1,1)	(1,0)	(1,0)	(1,0)	(1,0)	(1,0)	(1,0)	(1,0)	(1,0)	(1,0)	(1,0)	(1,0)	(1,0)	(1,0)	
L1D -290>	(2,5)	(121,1)	(1,0)	(1,0)	(1,0)	(1,0)	(1,0)	(1,0)	(1,0)	(1,0)	(1,0)	(1,0)	(1,0)	(1,0)	(1,0)	(1,0)	
L1D -289>	(2,1)	(6,1)	(39,1)	(8,2)	(1,0)	(1,0)	(1,0)	(1,0)	(1,0)	(1,0)	(1,0)	(1,0)	(1,0)	(1,0)	(1,0)	(1,0)	
L1D -288>	(2,50)	(1,2)	(4,1)	(1,0)	(1,0)	(1,0)	(1,0)	(1,0)	(1,0)	(1,0)	(1,0)	(1,0)	(1,0)	(1,0)	(1,0)	(1,0)	
L1D -287>	(1,2)	(2,4)	(0,1)	(3,1)	(1,0)	(1,0)	(1,0)	(1,0)	(1,0)	(1,0)	(1,0)	(1,0)	(1,0)	(1,0)	(1,0)	(1,0)	
L1D -286>	(2,16)	(-1,1)	(7,1)	(296,3)	(4,1)	(1,0)	(1,0)	(1,0)	(1,0)	(1,0)	(1,0)	(1,0)	(1,0)	(1,0)	(1,0)	(1,0)	
L1D -285>	(432,1)	(54,3)	(1,0)	(1,0)	(1,0)	(1,0)	(1,0)	(1,0)	(1,0)	(1,0)	(1,0)	(1,0)	(1,0)	(1,0)	(1,0)	(1,0)	
L1D -284>	(2,4)	(4,1)	(1,0)	(1,0)	(1,0)	(1,0)	(1,0)	(1,0)	(1,0)	(1,0)	(1,0)	(1,0)	(1,0)	(1,0)	(1,0)	(1,0)	
L1D -283>	(-8,1)	(1,2)	(1,0)	(1,0)	(1,0)	(1,0)	(1,0)	(1,0)	(1,0)	(1,0)	(1,0)	(1,0)	(1,0)	(1,0)	(1,0)	(1,0)	
L1D -282>	(2,6)	(259,1)	(4,16)	(261,1)	(0,2)	(256,5)	(1,1)	(1,0)	(1,0)	(1,0)	(1,0)	(1,0)	(1,0)	(1,0)	(1,0)	(1,0)	
L1D -281>	(0,1)	(1,0)	(1,0)	(1,0)	(1,0)	(1,0)	(1,0)	(1,0)	(1,0)	(1,0)	(1,0)	(1,0)	(1,0)	(1,0)	(1,0)	(1,0)	
L1D -280>	(8,2)	(4,10)	(6,2)	(1,1)	(1,0)	(1,0)	(1,0)	(1,0)	(1,0)	(1,0)	(1,0)	(1,0)	(1,0)	(1,0)	(1,0)	(1,0)	
L1D -279>	(8,1)	(2,4)	(1,0)	(1,0)	(1,0)	(1,0)	(1,0)	(1,0)	(1,0)	(1,0)	(1,0)	(1,0)	(1,0)	(1,0)	(1,0)	(1,0)	
L1D -278>	(2,13)	(6,5)	(4,21)	(8,5)	(242,1)	(0,1)	(1,0)	(1,0)	(1,0)	(1,0)	(1,0)	(1,0)	(1,0)	(1,0)	(1,0)	(1,0)	
L1D -277>	(1,0)	(1,0)	(1,0)	(1,0)	(1,0)	(1,0)	(1,0)	(1,0)	(1,0)	(1,0)	(1,0)	(1,0)	(1,0)	(1,0)	(1,0)	(1,0)	
L1D -276>	(2,6)	(4,10)	(8,4)	(6,1)	(1,1)	(1,0)	(1,0)	(1,0)	(1,0)	(1,0)	(1,0)	(1,0)	(1,0)	(1,0)	(1,0)	(1,0)	
L1D -275>	(-11,1)	(5,1)	(2,1)	(4,1)	(1,0)	(1,0)	(1,0)	(1,0)	(1,0)	(1,0)	(1,0)	(1,0)	(1,0)	(1,0)	(1,0)	(1,0)	
L1D -274>	(0,1)	(4,2)	(2,2)	(8,1)	(6,1)	(1,0)	(1,0)	(1,0)	(1,0)	(1,0)	(1,0)	(1,0)	(1,0)	(1,0)	(1,0)	(1,0)	
L1D -273>	(2,1)	(1,0)	(1,0)	(1,0)	(1,0)	(1,0)	(1,0)	(1,0)	(1,0)	(1,0)	(1,0)	(1,0)	(1,0)	(1,0)	(1,0)	(1,0)	
L1D -272>	(6,6)	(4,5)	(2,7)	(8,5)	(0,2)	(1,0)	(1,0)	(1,0)	(1,0)	(1,0)	(1,0)	(1,0)	(1,0)	(1,0)	(1,0)	(1,0)	
L1D -271>	(1,0)	(1,0)	(1,0)	(1,0)	(1,0)	(1,0)	(1,0)	(1,0)	(1,0)	(1,0)	(1,0)	(1,0)	(1,0)	(1,0)	(1,0)	(1,0)	
L1D -270>	(-1,2)	(-54,1)	(0,6)	(3,1)	(2,7)	(4,3)	(1,0)	(1,0)	(1,0)	(1,0)	(1,0)	(1,0)	(1,0)	(1,0)	(1,0)	(1,0)	
L1D -269>	(54,92)	(4,0)	(1,0)	(1,0)	(1,0)	(1,0)	(1,0)	(1,0)	(1,0)	(1,0)	(1,0)	(1,0)	(1,0)	(1,0)	(1,0)	(1,0)	
L1D -268>	(2,2)	(4,8)	(-1,1)	(6,1)	(54,1)	(1,1)	(12,1)	(0,1)	(1,0)	(1,0)	(1,0)	(1,0)	(1,0)	(1,0)	(1,0)	(1,0)	
L1D -267>	(-54,1)	(2,6)	(8,1)	(196,1)	(4,4)	(6,2)	(1,0)	(1,0)	(1,0)	(1,0)	(1,0)	(1,0)	(1,0)	(1,0)	(1,0)	(1,0)	
L1D -266>	(1,1)	(2,26)	(4,16)	(54,4)	(-54,8)	(8,6)	(6,6)	(-8,1)	(3,2)	(432,3)	(10,1)	(378,1)	(14,1)	(1,0)	(1,0)	(1,0)	
L1D -265>	(2,36)	(1,24)	(3,11)	(4,18)	(8,7)	(326,1)	(1,0)	(1,0)	(1,0)	(1,0)	(1,0)	(1,0)	(1,0)	(1,0)	(1,0)	(1,0)	
L1D -264>	(2,11)	(6,8)	(4,7)	(8,13)	(-35,1)	(1,6)	(3,1)	(1,0)	(1,0)	(1,0)	(1,0)	(1,0)	(1,0)	(1,0)	(1,0)	(1,0)	
L1D -263>	(2,1)	(4,2)	(6,1)	(1,0)	(1,0)	(1,0)	(1,0)	(1,0)	(1,0)	(1,0)	(1,0)	(1,0)	(1,0)	(1,0)	(1,0)	(1,0)	
L1D -262>	(2,2)	(8,4)	(6,1)	(4,1)	(1,0)	(1,0)	(1,0)	(1,0)	(1,0)	(1,0)	(1,0)	(1,0)	(1,0)	(1,0)	(1,0)	(1,0)	
L1D -261>	(1,0)	(1,0)	(1,0)	(1,0)	(1,0)	(1,0)	(1,0)	(1,0)	(1,0)	(1,0)	(1,0)	(1,0)	(1,0)	(1,0)	(1,0)	(1,0)	
L1D -260>	(2,95)	(1,1)	(270,1)	(3,1)	(282,2)	(8,1)	(1,0)	(1,0)	(1,0)	(1,0)	(1,0)	(1,0)	(1,0)	(1,0)	(1,0)	(1,0)	
L1D -259>	(2,2)	(228,1)	(1,22)	(250,1)	(1,0)	(1,0)	(1,0)	(1,0)	(1,0)	(1,0)	(1,0)	(1,0)	(1,0)	(1,0)	(1,0)	(1,0)	
L1D -258>	(1,7)	(8,1)	(2,27)	(227,1)	(3,2)	(-1,1)	(4,1)	(1,0)	(1,0)	(1,0)	(1,0)	(1,0)	(1,0)	(1,0)	(1,0)	(1,0)	
L1D -257>	(2,32)	(0,8)	(6,7)	(8,3)	(226,1)	(4,1)	(1,1)	(1,0)	(1,0)	(1,0)	(1,0)	(1,0)	(1,0)	(1,0)	(1,0)	(1,0)	
L1D -256>	(1,28)	(2,21)	(-1,7)	(-54,8)	(3,1)	(-4,4)	(225,1)	(6,2)	(1,0)	(1,0)	(1,0)	(1,0)	(1,0)	(1,0)	(1,0)	(1,0)	
L1D -255>	(2,3)	(0,8)	(31,1)	(4,6)	(224,1)	(1,0)	(1,0)	(1,0)	(1,0)	(1,0)	(1,0)	(1,0)	(1,0)	(1,0)	(1,0)	(1,0)	
L1D -254>	(4,1)	(3,1)	(223,1)	(-37,1)	(-31,2)	(2,1)	(-1,1)	(1,0)	(1,0)	(1,0)	(1,0)	(1,0)	(1,0)	(1,0)	(1,0)	(1,0)	
L1D -253>	(4,1)	(54,5)	(11,1)	(121,1)	(222,1)	(1,0)	(1,0)	(1,0)	(1,0)	(1,0)	(1,0)	(1,0)	(1,0)	(1,0)	(1,0)	(1,0)	
L1D -252>	(2,9)	(54,1)	(3,4)	(4,1)	(221,1)	(1,1)	(1,0)	(1,0)	(1,0)	(1,0)	(1,0)	(1,0)	(1,0)	(1,0)	(1,0)	(1,0)	
L1D -251>	(2,1)	(8,1)	(220,1)	(1,0)	(1,0)	(1,0)	(1,0)	(1,0)	(1,0)	(1,0)	(1,0)	(1,0)	(1,0)	(1,0)	(1,0)	(1,0)	
L1D -250>	(251,9)	(250,2)	(5,1)	(2,2)	(31,1)	(1,0)	(1,0)	(1,0)	(1,0)	(1,0)	(1,0)	(1,0)	(1,0)	(1,0)	(1,0)	(1,0)	
L1D -249>	(249,1)	(1,1)	(2,1)	(3,1)	(4,2)	(1,0)	(1,0)	(1,0)	(1,0)	(1,0)	(1,0)	(1,0)	(1,0)	(1,0)	(1,0)	(1,0)	
L1D -248>	(62,18)	(248,8)	(54,1)	(2,1)	(31,2)	(5,1)	(1,0)	(1,0)	(1,0)	(1,0)	(1,0)	(1,0)	(1,0)	(1,0)	(1,0)	(1,0)	
L1D -247>	(246,1)	(247,1)	(2,2)	(4,2)	(3,2)	(1,0)	(1,0)	(1,0)	(1,0)	(1,0)	(1,0)	(1,0)	(1,0)	(1,0)	(1,0)	(1,0)	
L1D -246>	(246,9)	(2,1)	(6,1)	(8,3)	(1,0)	(1,0)	(1,0)	(1,0)	(1,0)	(1,0)	(1,0)	(1,0)	(1,0)	(1,0)	(1,0)	(1,0)	
L1D -245>	(245,1)	(259,8)	(1,0)	(1,0)	(1,0)	(1,0)	(1,0)	(1,0)	(1,0)	(1,0)	(1,0)	(1,0)	(1,0)	(1,0)	(1,0)	(1,0)	
L1D -244>	(0,9)	(244,1)	(2,2)	(8,3)	(1,1)	(1,0)	(1,0)	(1,0)	(1,0)	(1,0)	(1,0)	(1,0)	(1,0)	(1,0)	(1,0)	(1,0)	
L1D -243>	(-2,1)	(2,6)	(3,6)	(0,1)	(-1,1)	(1,0)	(1,0)	(1,0)	(1,0)	(1,0)	(1,0)	(1,0)	(1,0)	(1,0)	(1,0)	(1,0)	
L1D -242>	(0,66)	(121,74)	(363,36)	(484,25)	(242,46)	(-121,13)	(123,15)	(365,8)	(2,20)	(1,8)	(108,1)	(-114,1)	(50,1)	(206,1)	(54,1)	(1,0)	
L1D -241>	(0,1)	(2,1)	(1,0)	(1,0)	(1,0)	(1,0)	(1,0)	(1,0)	(1,0)	(1,0)	(1,0)	(1,0)	(1,0)	(1,0)	(1,0)	(1,0)	
L1D -240>	(1,2)	(-121,5)	(0,6)	(242,12)	(363,12)	(6,1)	(2,6)	(3,1)	(1,0)	(1,0)	(1,0)	(1,0)	(1,0)	(1,0)	(1,0)	(1,0)	
L1D -239>	(2,1)	(1,1)	(1,0)	(1,0)	(1,0)	(1,0)	(1,0)	(1,0)	(1,0)	(1,0)	(1,0)	(1,0)	(1,0)	(1,0)	(1,0)	(1,0)	
L1D -238>	(2,5)	(-242,1)	(1,0)	(1,0)	(1,0)	(1,0)	(1,0)	(1,0)	(1,0)	(1,0)	(1,0)	(1,0)	(1,0)	(1,0)	(1,0)	(1,0)	
L1D -237>	(0,1)	(1,0)	(1,0)	(1,0)	(1,0)	(1,0)	(1,0)	(1,0)	(1,0)	(1,0)	(1,0)	(1,0)	(1,0)	(1,0)	(1,0)	(1,0)	
L1D -236>	(1,1)	(4,1)	(8,2)	(-1,1)	(-54,1)	(1,0)	(1,0)	(1,0)	(1,0)	(1,0)	(1,0)	(1,0)	(1,0)	(1,0)	(1,0)	(1,0)	
L1D -235>	(235,9)	(6,3)	(4,3)	(8,1)	(1,0)	(1,0)	(1,0)	(1,0)	(1,0)	(1,0)	(1,0)	(1,0)	(1,0)	(1,0)	(1,0)	(1,0)	
L1D -234>	(2,4)	(234,1)	(6,1)	(8,2)	(254,7)	(3,1)	(1,0)	(1,0)	(1,0)	(1,0)	(1,0)	(1,0)	(1,0)	(1,0)	(1,0)	(1,0)	
L1D -233>	(233,1)	(19,7)	(1,0)	(1,0)	(1,0)	(1,0)	(1,0)	(1,0)	(1,0)	(1,0)	(1,0)	(1,0)	(1,0)	(1,0)	(1,0)	(1,0)	
L1D -232>	(2,35)	(1,5)	(232,9)	(6,7)	(4,15)	(8,12)	(-121,1)	(1,0)	(1,0)	(1,0)	(1,0)	(1,0)	(1,0)	(1,0)	(1,0)	(1,0)	
L1D -231>	(231,1)	(232,1)	(8,1)	(1,0)	(1,0)	(1,0)	(1,0)	(1,0)	(1,0)	(1,0)	(1,0)	(1,0)	(1,0)	(1,0)	(1,0)	(1,0)	
L1D -230>	(2,11)	(230,1)	(1,3)	(8,3)	(4,1)	(1,0)	(1,0)	(1,0)	(1,0)	(1,0)	(1,0)	(1,0)	(1,0)	(1,0)	(1,0)	(1,0)	
L1D -229>	(230,6)	(229,1)	(1,6)	(5,1)	(6,1)	(1,0)	(1,0)	(1,0)	(1,0)	(1,0)	(1,0)	(1,0)	(1,0)	(1,0)	(1,0)	(1,0)	
L1D -228>	(0,1)	(-9,9)	(228,1)	(9,5)	(2,1)	(1,0)	(1,0)	(1,0)	(1,0)	(1,0)	(1,0)	(1,0)	(1,0)	(1,0)	(1,0)	(1,0)	
L1D -227>	(2,2)	(1,4)	(227,5)	(4,1)	(1,0)	(1,0)	(1,0)	(1,0)	(1,0)	(1,0)	(1,0)	(1,0)	(1,0)	(1,0)	(1,0)	(1,0)	
L1D -226>	(2,3)	(226,1)	(1,7)	(4,4)	(432,1)	(6,1)	(1,0)	(1,0)	(1,0)	(1,0)	(1,0)	(1,0)	(1,0)	(1,0)	(1,0)	(1,0)	
L1D -225>	(225,6)	(254,1)	(2,2)	(8,1)	(1,0)	(1,0)	(1,0)	(1,0)	(1,0)	(1,0)	(1,0)	(1,0)	(1,0)	(1,0)	(1,0)	(1,0)	
L1D -224>	(224,2)	(222,7)	(8,6)	(4,4)	(2,7)	(6,1)	(1,3)	(1,0)	(1,0)	(1,0)	(1,0)	(1,0)	(1,0)	(1,0)	(1,0)	(1,0)	
L1D -223>	(1,3)	(1,0)	(1,0)	(1,0)	(1,0)	(1,0)	(1,0)	(1,0)	(1,0)	(1,0)	(1,0)	(1,0)	(1,0)	(1,0)	(1,0)	(1,0)	
L1D -222>	(1,1)	(220,7)	(6,1)	(9,3)	(2,2)	(1,0)	(1,0)	(1,0)	(1,0)	(1,0)	(1,0)	(1,0)	(1,0)	(1,0)	(1,0)	(1,0)	
L1D -221>	(1,1)	(6,1)	(54,4)	(2,1)	(1,0)	(1,0)	(1,0)	(1,0)	(1,0)	(1,0)	(1,0)	(1,0)	(1,0)	(1,0)	(1,0)	(1,0)	
L1D -220>	(218,8)	(-1,1)	(2,3)	(1,4)	(6,1)	(54,2)	(5,1)	(3,1)	(1,0)	(1,0)	(1,0)	(1,0)	(1,0)	(1,0)	(1,0)	(1,0)	
L1D -219>	(1,0)	(1,0)	(1,0)	(1,0)	(1,0)	(1,0)	(1,0)	(1,0)	(1,0)	(1,0)	(1,0)	(1,0)	(1,0)	(1,0)	(1,0)	(1,0)	
L1D -218>	(216,5)	(1,3)	(54,1)	(2,4)	(8,1)	(1,0)	(1,0)	(1,0)	(1,0)	(1,0)	(1,0)	(1,0)	(1,0)	(1,0)	(1,0)	(1,0)	
L1D -217>	(215,1)	(2,1)	(1,0)	(1,0)	(1,0)	(1,0)	(1,0)	(1,0)	(1,0)	(1,0)	(1,0)	(1,0)	(1,0)	(1,0)	(1,0)	(1,0)	
L1D -216>	(1,1)	(4,8)	(215,7)	(2,3)	(54,1)	(9,1)	(1,0)	(1,0)	(1,0)	(1,0)	(1,0)	(1,0)	(1,0)	(1,0)	(1,0)	(1,0)	
L1D -215>	(3,0)	(4,2)	(-2,0)	(6,1)	(0,0)	(54,76)	(1,1)	(9,0)	(1,0)	(1,0)	(1,0)	(1,0)	(1,0)	(1,0)	(1,0)	(1,0)	
L1D -214>	(1,11)	(209,31)	(6,5)	(217,1)	(35,3)	(4,4)	(0,1)	(3,3)	(2,2)	(1,0)	(1,0)	(1,0)	(1,0)	(1,0)	(1,0)	(1,0)	
L1D -213>	(1,2)	(-2,2)	(6,1)	(4,3)	(2,1)	(54,1)	(1,0)	(1,0)	(1,0)	(1,0)	(1,0)	(1,0)	(1,0)	(1,0)	(1,0)	(1,0)	
L1D -212>	(1,56)	(2,10)	(4,9)	(224,7)	(3,5)	(214,2)	(215,1)	(54,6)	(35,3)	(9,1)	(8,1)	(1,0)	(1,0)	(1,0)	(1,0)	(1,0)	
L1D -211>	(1,13)	(2,29)	(4,27)	(-54,5)	(54,4)	(3,2)	(209,1)	(1,0)	(1,0)	(1,0)	(1,0)	(1,0)	(1,0)	(1,0)	(1,0)	(1,0)	
L1D -210>	(1,41)	(2,77)	(-1,3)	(4,22)	(-54,3)	(0,12)	(6,24)	(54,7)	(10,4)	(212,1)	(432,4)	(1,0)	(1,0)	(1,0)	(1,0)	(1,0)	
L1D -209>	(-1,68)	(212,0)	(-6,11)	(0,0)	(-4,0)	(-2,4)	(2,8)	(6,0)	(3,0)	(8,0)	(1,0)	(1,0)	(1,0)	(1,0)	(1,0)	(1,0)	
L1D -208>	(4,6)	(206,1)	(211,1)	(6,2)	(35,1)	(-1,7)	(2,21)	(5,1)	(1,1)	(432,1)	(-2,1)	(196,1)	(3,1)	(8,1)	(1,0)	(1,0)	
L1D -207>	(1,4)	(-1,2)	(-3,9)	(2,1)	(1,0)	(1,0)	(1,0)	(1,0)	(1,0)	(1,0)	(1,0)	(1,0)	(1,0)	(1,0)	(1,0)	(1,0)	
L1D -206>	(0,1)	(6,9)	(200,6)	(1,2)	(-3,2)	(1,0)	(1,0)	(1,0)	(1,0)	(1,0)	(1,0)	(1,0)	(1,0)	(1,0)	(1,0)	(1,0)	
L1D -205>	(211,1)	(1,2)	(5,1)	(4,1)	(1,0)	(1,0)	(1,0)	(1,0)	(1,0)	(1,0)	(1,0)	(1,0)	(1,0)	(1,0)	(1,0)	(1,0)	
L1D -204>	(207,1)	(2,10)	(1,24)	(204,6)	(-6,25)	(363,1)	(8,1)	(6,1)	(-2,2)	(4,1)	(1,0)	(1,0)	(1,0)	(1,0)	(1,0)	(1,0)	
L1D -203>	(2,3)	(203,9)	(-2,1)	(54,1)	(1,0)	(1,0)	(1,0)	(1,0)	(1,0)	(1,0)	(1,0)	(1,0)	(1,0)	(1,0)	(1,0)	(1,0)	
L1D -202>	(0,1)	(2,4)	(-54,4)	(202,1)	(-14,9)	(8,1)	(-1,2)	(1,0)	(1,0)	(1,0)	(1,0)	(1,0)	(1,0)	(1,0)	(1,0)	(1,0)	
L1D -201>	(1,2)	(202,4)	(201,1)	(91,8)	(196,5)	(212,4)	(193,2)	(1,0)	(1,0)	(1,0)	(1,0)	(1,0)	(1,0)	(1,0)	(1,0)	(1,0)	
L1D -200>	(-10,1)	(0,5)	(1,17)	(200,1)	(201,8)	(8,4)	(12,1)	(1,0)	(1,0)	(1,0)	(1,0)	(1,0)	(1,0)	(1,0)	(1,0)	(1,0)	
L1D -199>	(0,9)	(199,1)	(1,5)	(1,0)	(1,0)	(1,0)	(1,0)	(1,0)	(1,0)	(1,0)	(1,0)	(1,0)	(1,0)	(1,0)	(1,0)	(1,0)	
L1D -198>	(2,1)	(198,9)	(105,8)	(0,19)	(1,3)	(5,1)	(1,0)	(1,0)	(1,0)	(1,0)	(1,0)	(1,0)	(1,0)	(1,0)	(1,0)	(1,0)	
L1D -197>	(1,25)	(197,9)	(-54,1)	(2,1)	(210,1)	(3,1)	(1,0)	(1,0)	(1,0)	(1,0)	(1,0)	(1,0)	(1,0)	(1,0)	(1,0)	(1,0)	
L1D -196>	(196,29)	(0,25)	(197,3)	(54,1)	(5,6)	(6,1)	(392,1)	(1,0)	(1,0)	(1,0)	(1,0)	(1,0)	(1,0)	(1,0)	(1,0)	(1,0)	
L1D -195>	(210,5)	(2,3)	(197,1)	(4,1)	(0,1)	(1,0)	(1,0)	(1,0)	(1,0)	(1,0)	(1,0)	(1,0)	(1,0)	(1,0)	(1,0)	(1,0)	
L1D -194>	(2,9)	(1,13)	(196,5)	(4,8)	(3,11)	(198,12)	(210,2)	(0,2)	(197,1)	(6,1)	(1,0)	(1,0)	(1,0)	(1,0)	(1,0)	(1,0)	
L1D -193>	(2,6)	(197,1)	(220,1)	(1,0)	(1,0)	(1,0)	(1,0)	(1,0)	(1,0)	(1,0)	(1,0)	(1,0)	(1,0)	(1,0)	(1,0)	(1,0)	
L1D -192>	(2,10)	(4,13)	(3,1)	(1,2)	(8,1)	(31,1)	(5,1)	(1,0)	(1,0)	(1,0)	(1,0)	(1,0)	(1,0)	(1,0)	(1,0)	(1,0)	
L1D -191>	(2,2)	(211,1)	(5,1)	(1,1)	(-1,4)	(1,0)	(1,0)	(1,0)	(1,0)	(1,0)	(1,0)	(1,0)	(1,0)	(1,0)	(1,0)	(1,0)	
L1D -190>	(2,4)	(192,1)	(4,4)	(-1,3)	(1,4)	(3,1)	(6,1)	(8,1)	(1,0)	(1,0)	(1,0)	(1,0)	(1,0)	(1,0)	(1,0)	(1,0)	
L1D -189>	(6,1)	(54,1)	(-1,1)	(2,1)	(1,0)	(1,0)	(1,0)	(1,0)	(1,0)	(1,0)	(1,0)	(1,0)	(1,0)	(1,0)	(1,0)	(1,0)	
L1D -188>	(2,21)	(4,4)	(54,1)	(0,2)	(6,1)	(1,0)	(1,0)	(1,0)	(1,0)	(1,0)	(1,0)	(1,0)	(1,0)	(1,0)	(1,0)	(1,0)	
L1D -187>	(26,1)	(0,10)	(1,13)	(188,9)	(187,2)	(164,1)	(18,8)	(2,4)	(4,7)	(161,4)	(6,6)	(165,1)	(3,5)	(8,1)	(121,1)	(1,0)	
L1D -186>	(186,2)	(6,1)	(4,3)	(2,3)	(1,2)	(194,1)	(0,1)	(3,1)	(1,0)	(1,0)	(1,0)	(1,0)	(1,0)	(1,0)	(1,0)	(1,0)	
L1D -185>	(185,5)	(6,2)	(2,8)	(4,1)	(1,0)	(1,0)	(1,0)	(1,0)	(1,0)	(1,0)	(1,0)	(1,0)	(1,0)	(1,0)	(1,0)	(1,0)	
L1D -184>	(184,1)	(8,3)	(270,8)	(4,3)	(1,2)	(-1,1)	(2,3)	(363,1)	(0,1)	(1,0)	(1,0)	(1,0)	(1,0)	(1,0)	(1,0)	(1,0)	
L1D -183>	(183,6)	(8,1)	(2,2)	(-1,5)	(1,0)	(1,0)	(1,0)	(1,0)	(1,0)	(1,0)	(1,0)	(1,0)	(1,0)	(1,0)	(1,0)	(1,0)	
L1D -182>	(182,1)	(8,3)	(4,1)	(6,2)	(1,0)	(1,0)	(1,0)	(1,0)	(1,0)	(1,0)	(1,0)	(1,0)	(1,0)	(1,0)	(1,0)	(1,0)	
L1D -181>	(181,1)	(270,1)	(18,1)	(1,0)	(1,0)	(1,0)	(1,0)	(1,0)	(1,0)	(1,0)	(1,0)	(1,0)	(1,0)	(1,0)	(1,0)	(1,0)	
L1D -180>	(181,5)	(180,2)	(2,1)	(4,1)	(186,1)	(6,2)	(121,1)	(1,0)	(1,0)	(1,0)	(1,0)	(1,0)	(1,0)	(1,0)	(1,0)	(1,0)	
L1D -179>	(179,1)	(113,1)	(1,0)	(1,0)	(1,0)	(1,0)	(1,0)	(1,0)	(1,0)	(1,0)	(1,0)	(1,0)	(1,0)	(1,0)	(1,0)	(1,0)	
L1D -178>	(178,4)	(18,7)	(186,2)	(2,10)	(4,2)	(1,0)	(1,0)	(1,0)	(1,0)	(1,0)	(1,0)	(1,0)	(1,0)	(1,0)	(1,0)	(1,0)	
L1D -177>	(2,5)	(1,3)	(177,1)	(3,1)	(111,1)	(8,2)	(35,1)	(1,0)	(1,0)	(1,0)	(1,0)	(1,0)	(1,0)	(1,0)	(1,0)	(1,0)	
L1D -176>	(2,20)	(176,5)	(8,16)	(4,3)	(85,1)	(1,0)	(1,0)	(1,0)	(1,0)	(1,0)	(1,0)	(1,0)	(1,0)	(1,0)	(1,0)	(1,0)	
L1D -175>	(175,1)	(2,1)	(109,1)	(72,2)	(4,1)	(52,1)	(1,0)	(1,0)	(1,0)	(1,0)	(1,0)	(1,0)	(1,0)	(1,0)	(1,0)	(1,0)	
L1D -174>	(-11,1)	(-1,3)	(2,13)	(4,4)	(6,6)	(-10,1)	(-121,1)	(1,0)	(1,0)	(1,0)	(1,0)	(1,0)	(1,0)	(1,0)	(1,0)	(1,0)	
L1D -173>	(-49,5)	(-50,3)	(54,1)	(8,13)	(-134,3)	(-48,2)	(107,1)	(151,5)	(52,1)	(1,0)	(1,0)	(1,0)	(1,0)	(1,0)	(1,0)	(1,0)	
L1D -172>	(54,2)	(6,4)	(-8,1)	(-4,3)	(2,3)	(4,2)	(-11,1)	(-7,2)	(1,1)	(1,0)	(1,0)	(1,0)	(1,0)	(1,0)	(1,0)	(1,0)	
L1D -171>	(0,18)	(105,1)	(1,0)	(1,0)	(1,0)	(1,0)	(1,0)	(1,0)	(1,0)	(1,0)	(1,0)	(1,0)	(1,0)	(1,0)	(1,0)	(1,0)	
L1D -170>	(178,1)	(-1,1)	(1,0)	(1,0)	(1,0)	(1,0)	(1,0)	(1,0)	(1,0)	(1,0)	(1,0)	(1,0)	(1,0)	(1,0)	(1,0)	(1,0)	
L1D -169>	(1,3)	(103,1)	(1,0)	(1,0)	(1,0)	(1,0)	(1,0)	(1,0)	(1,0)	(1,0)	(1,0)	(1,0)	(1,0)	(1,0)	(1,0)	(1,0)	
L1D -168>	(180,27)	(196,1)	(2,1)	(1,0)	(1,0)	(1,0)	(1,0)	(1,0)	(1,0)	(1,0)	(1,0)	(1,0)	(1,0)	(1,0)	(1,0)	(1,0)	
L1D -167>	(1,26)	(101,1)	(2,1)	(1,0)	(1,0)	(1,0)	(1,0)	(1,0)	(1,0)	(1,0)	(1,0)	(1,0)	(1,0)	(1,0)	(1,0)	(1,0)	
L1D -166>	(2,2)	(6,6)	(164,1)	(4,2)	(1,0)	(1,0)	(1,0)	(1,0)	(1,0)	(1,0)	(1,0)	(1,0)	(1,0)	(1,0)	(1,0)	(1,0)	
L1D -165>	(54,1)	(161,1)	(0,1)	(432,1)	(1,1)	(99,1)	(1,0)	(1,0)	(1,0)	(1,0)	(1,0)	(1,0)	(1,0)	(1,0)	(1,0)	(1,0)	
L1D -164>	(1,13)	(3,5)	(8,16)	(2,4)	(6,2)	(175,1)	(4,7)	(170,1)	(161,1)	(54,1)	(1,0)	(1,0)	(1,0)	(1,0)	(1,0)	(1,0)	
L1D -163>	(104,8)	(2,6)	(-11,8)	(1,2)	(3,2)	(4,1)	(-49,2)	(97,1)	(1,0)	(1,0)	(1,0)	(1,0)	(1,0)	(1,0)	(1,0)	(1,0)	
L1D -162>	(2,17)	(47,7)	(6,2)	(4,11)	(170,2)	(54,1)	(1,1)	(0,1)	(-50,2)	(-60,1)	(1,0)	(1,0)	(1,0)	(1,0)	(1,0)	(1,0)	
L1D -161>	(54,76)	(-60,1)	(8,2)	(2,1)	(175,1)	(1,2)	(4,2)	(160,0)	(1,0)	(1,0)	(1,0)	(1,0)	(1,0)	(1,0)	(1,0)	(1,0)	
L1D -160>	(54,2)	(159,1)	(31,1)	(6,1)	(-52,2)	(2,1)	(-60,1)	(1,0)	(1,0)	(1,0)	(1,0)	(1,0)	(1,0)	(1,0)	(1,0)	(1,0)	
L1D -159>	(2,2)	(159,18)	(-4,1)	(6,2)	(-53,2)	(-60,1)	(8,1)	(1,0)	(1,0)	(1,0)	(1,0)	(1,0)	(1,0)	(1,0)	(1,0)	(1,0)	
L1D -158>	(2,13)	(4,3)	(8,3)	(6,3)	(-54,2)	(-60,1)	(-121,2)	(3,1)	(1,0)	(1,0)	(1,0)	(1,0)	(1,0)	(1,0)	(1,0)	(1,0)	
L1D -157>	(1,19)	(2,8)	(-1,8)	(4,14)	(3,6)	(54,3)	(-55,2)	(-60,1)	(164,1)	(172,1)	(269,1)	(1,0)	(1,0)	(1,0)	(1,0)	(1,0)	
L1D -156>	(2,13)	(-54,79)	(168,7)	(156,5)	(24,3)	(4,4)	(8,14)	(32,7)	(-56,1)	(106,0)	(-60,0)	(5,2)	(-1,0)	(84,0)	(-121,0)	(1,0)	
L1D -155>	(-57,2)	(155,8)	(156,9)	(-1,11)	(3,2)	(-60,1)	(4,4)	(2,2)	(1,0)	(1,0)	(1,0)	(1,0)	(1,0)	(1,0)	(1,0)	(1,0)	
L1D -154>	(154,1)	(2,1)	(-54,11)	(1,1)	(4,2)	(3,2)	(8,2)	(10,1)	(151,1)	(1,0)	(1,0)	(1,0)	(1,0)	(1,0)	(1,0)	(1,0)	
L1D -153>	(8,3)	(153,1)	(71,1)	(3,4)	(265,1)	(-1,1)	(4,1)	(1,0)	(1,0)	(1,0)	(1,0)	(1,0)	(1,0)	(1,0)	(1,0)	(1,0)	
L1D -152>	(-60,9)	(-49,1)	(153,7)	(152,2)	(8,13)	(-56,1)	(-55,1)	(2,4)	(1,1)	(4,5)	(-54,2)	(3,1)	(-53,1)	(6,1)	(-52,1)	(-3,1)	
L1D -151>	(151,2)	(31,6)	(4,1)	(148,1)	(1,0)	(1,0)	(1,0)	(1,0)	(1,0)	(1,0)	(1,0)	(1,0)	(1,0)	(1,0)	(1,0)	(1,0)	
L1D -150>	(2,5)	(150,7)	(4,1)	(-2,1)	(6,1)	(1,0)	(1,0)	(1,0)	(1,0)	(1,0)	(1,0)	(1,0)	(1,0)	(1,0)	(1,0)	(1,0)	
L1D -149>	(1,6)	(149,2)	(7,1)	(-1,8)	(-54,3)	(5,5)	(4,2)	(1,0)	(1,0)	(1,0)	(1,0)	(1,0)	(1,0)	(1,0)	(1,0)	(1,0)	
L1D -148>	(64,25)	(-1,8)	(2,4)	(3,11)	(135,1)	(1,11)	(4,11)	(-54,5)	(8,1)	(121,1)	(1,0)	(1,0)	(1,0)	(1,0)	(1,0)	(1,0)	
L1D -147>	(159,1)	(1,1)	(2,8)	(4,1)	(-242,1)	(1,0)	(1,0)	(1,0)	(1,0)	(1,0)	(1,0)	(1,0)	(1,0)	(1,0)	(1,0)	(1,0)	
L1D -146>	(2,6)	(4,3)	(8,3)	(159,1)	(6,2)	(242,1)	(121,1)	(1,0)	(1,0)	(1,0)	(1,0)	(1,0)	(1,0)	(1,0)	(1,0)	(1,0)	
L1D -145>	(159,1)	(8,1)	(1,0)	(1,0)	(1,0)	(1,0)	(1,0)	(1,0)	(1,0)	(1,0)	(1,0)	(1,0)	(1,0)	(1,0)	(1,0)	(1,0)	
L1D -144>	(8,44)	(6,23)	(5,12)	(7,1)	(4,7)	(159,1)	(3,4)	(2,5)	(326,2)	(1,0)	(1,0)	(1,0)	(1,0)	(1,0)	(1,0)	(1,0)	
L1D -143>	(-2,8)	(39,10)	(-1,2)	(178,2)	(1,3)	(112,2)	(131,1)	(51,1)	(159,1)	(2,1)	(4,1)	(1,0)	(1,0)	(1,0)	(1,0)	(1,0)	
L1D -142>	(143,3)	(-1,1)	(2,2)	(1,1)	(159,1)	(0,1)	(1,0)	(1,0)	(1,0)	(1,0)	(1,0)	(1,0)	(1,0)	(1,0)	(1,0)	(1,0)	
L1D -141>	(142,1)	(6,2)	(54,3)	(143,2)	(159,2)	(4,1)	(1,0)	(1,0)	(1,0)	(1,0)	(1,0)	(1,0)	(1,0)	(1,0)	(1,0)	(1,0)	
L1D -140>	(142,1)	(140,6)	(6,2)	(54,2)	(216,1)	(141,3)	(2,1)	(159,1)	(1,0)	(1,0)	(1,0)	(1,0)	(1,0)	(1,0)	(1,0)	(1,0)	
L1D -139>	(139,1)	(2,8)	(1,1)	(6,1)	(1,0)	(1,0)	(1,0)	(1,0)	(1,0)	(1,0)	(1,0)	(1,0)	(1,0)	(1,0)	(1,0)	(1,0)	
L1D -138>	(139,2)	(138,4)	(144,9)	(143,7)	(54,2)	(4,2)	(142,4)	(2,1)	(-242,1)	(-1,1)	(1,0)	(1,0)	(1,0)	(1,0)	(1,0)	(1,0)	
L1D -137>	(1,26)	(137,1)	(138,4)	(143,1)	(1,0)	(1,0)	(1,0)	(1,0)	(1,0)	(1,0)	(1,0)	(1,0)	(1,0)	(1,0)	(1,0)	(1,0)	
L1D -136>	(52,13)	(138,1)	(136,1)	(216,7)	(8,1)	(54,1)	(65,1)	(1,1)	(1,0)	(1,0)	(1,0)	(1,0)	(1,0)	(1,0)	(1,0)	(1,0)	
L1D -135>	(135,5)	(1,3)	(2,1)	(0,1)	(1,0)	(1,0)	(1,0)	(1,0)	(1,0)	(1,0)	(1,0)	(1,0)	(1,0)	(1,0)	(1,0)	(1,0)	
L1D -134>	(134,5)	(-12,1)	(-11,2)	(135,1)	(-242,1)	(1,0)	(1,0)	(1,0)	(1,0)	(1,0)	(1,0)	(1,0)	(1,0)	(1,0)	(1,0)	(1,0)	
L1D -133>	(133,1)	(1,1)	(8,1)	(18,8)	(-36,1)	(134,1)	(1,0)	(1,0)	(1,0)	(1,0)	(1,0)	(1,0)	(1,0)	(1,0)	(1,0)	(1,0)	
L1D -132>	(0,24)	(132,1)	(79,8)	(1,20)	(8,2)	(40,1)	(1,0)	(1,0)	(1,0)	(1,0)	(1,0)	(1,0)	(1,0)	(1,0)	(1,0)	(1,0)	
L1D -131>	(2,107)	(132,7)	(131,2)	(1,7)	(4,3)	(121,1)	(1,0)	(1,0)	(1,0)	(1,0)	(1,0)	(1,0)	(1,0)	(1,0)	(1,0)	(1,0)	
L1D -130>	(130,1)	(-1,8)	(1,11)	(2,2)	(164,2)	(-24,1)	(1,0)	(1,0)	(1,0)	(1,0)	(1,0)	(1,0)	(1,0)	(1,0)	(1,0)	(1,0)	
L1D -129>	(129,109)	(0,26)	(1,7)	(2,7)	(6,1)	(4,1)	(8,1)	(1,0)	(1,0)	(1,0)	(1,0)	(1,0)	(1,0)	(1,0)	(1,0)	(1,0)	
L1D -128>	(128,1)	(129,8)	(-1,7)	(0,12)	(-185,8)	(1,10)	(8,3)	(2,14)	(6,2)	(4,1)	(85,2)	(55,2)	(1,0)	(1,0)	(1,0)	(1,0)	
L1D -127>	(1,16)	(127,3)	(-1,9)	(3,4)	(4,4)	(2,8)	(0,1)	(128,1)	(1,0)	(1,0)	(1,0)	(1,0)	(1,0)	(1,0)	(1,0)	(1,0)	
L1D -126>	(126,1)	(4,2)	(1,3)	(0,1)	(176,1)	(1,0)	(1,0)	(1,0)	(1,0)	(1,0)	(1,0)	(1,0)	(1,0)	(1,0)	(1,0)	(1,0)	
L1D -125>	(1,3)	(125,1)	(2,3)	(116,7)	(4,2)	(89,1)	(8,5)	(54,2)	(61,5)	(6,1)	(1,0)	(1,0)	(1,0)	(1,0)	(1,0)	(1,0)	
L1D -124>	(125,7)	(124,3)	(2,11)	(4,5)	(116,1)	(1,1)	(54,1)	(1,0)	(1,0)	(1,0)	(1,0)	(1,0)	(1,0)	(1,0)	(1,0)	(1,0)	
L1D -123>	(123,1)	(97,8)	(110,8)	(4,2)	(2,2)	(6,1)	(0,1)	(76,1)	(1,0)	(1,0)	(1,0)	(1,0)	(1,0)	(1,0)	(1,0)	(1,0)	
L1D -122>	(2,5)	(122,6)	(8,1)	(92,1)	(4,2)	(5,4)	(6,1)	(1,1)	(1,0)	(1,0)	(1,0)	(1,0)	(1,0)	(1,0)	(1,0)	(1,0)	
L1D -121>	(121,101)	(0,98)	(-121,63)	(242,20)	(-242,36)	(363,18)	(22,8)	(64,10)	(244,8)	(123,17)	(2,22)	(-361,3)	(129,4)	(279,1)	(-119,6)	(73,1)	
L1D -120>	(120,8)	(0,1)	(12,1)	(4,1)	(8,3)	(2,2)	(1,1)	(-31,1)	(1,0)	(1,0)	(1,0)	(1,0)	(1,0)	(1,0)	(1,0)	(1,0)	
L1D -119>	(119,1)	(121,21)	(242,5)	(-242,12)	(8,1)	(0,6)	(1,0)	(1,0)	(1,0)	(1,0)	(1,0)	(1,0)	(1,0)	(1,0)	(1,0)	(1,0)	
L1D -118>	(8,1)	(1,0)	(1,0)	(1,0)	(1,0)	(1,0)	(1,0)	(1,0)	(1,0)	(1,0)	(1,0)	(1,0)	(1,0)	(1,0)	(1,0)	(1,0)	
L1D -117>	(1,1)	(2,5)	(89,8)	(0,22)	(4,1)	(54,1)	(5,1)	(1,0)	(1,0)	(1,0)	(1,0)	(1,0)	(1,0)	(1,0)	(1,0)	(1,0)	
L1D -116>	(2,23)	(1,5)	(10,1)	(4,32)	(6,15)	(8,15)	(-3,1)	(143,1)	(5,1)	(122,1)	(35,1)	(1,0)	(1,0)	(1,0)	(1,0)	(1,0)	
L1D -115>	(55,12)	(8,1)	(2,3)	(62,2)	(4,2)	(1,0)	(1,0)	(1,0)	(1,0)	(1,0)	(1,0)	(1,0)	(1,0)	(1,0)	(1,0)	(1,0)	
L1D -114>	(1,6)	(76,8)	(8,6)	(2,24)	(4,16)	(6,8)	(33,2)	(5,1)	(122,1)	(1,0)	(1,0)	(1,0)	(1,0)	(1,0)	(1,0)	(1,0)	
L1D -113>	(2,1)	(4,1)	(1,0)	(1,0)	(1,0)	(1,0)	(1,0)	(1,0)	(1,0)	(1,0)	(1,0)	(1,0)	(1,0)	(1,0)	(1,0)	(1,0)	
L1D -112>	(2,42)	(8,19)	(6,27)	(4,21)	(-7,4)	(5,5)	(1,3)	(15,1)	(-16,1)	(1,0)	(1,0)	(1,0)	(1,0)	(1,0)	(1,0)	(1,0)	
L1D -111>	(0,31)	(1,80)	(3,10)	(2,28)	(4,5)	(-1,5)	(57,6)	(112,1)	(5,1)	(1,0)	(1,0)	(1,0)	(1,0)	(1,0)	(1,0)	(1,0)	
L1D -110>	(56,1)	(1,36)	(2,6)	(112,8)	(123,16)	(0,19)	(3,8)	(8,3)	(4,8)	(-54,3)	(-1,2)	(111,1)	(57,7)	(6,5)	(1,0)	(1,0)	
L1D -109>	(111,1)	(1,5)	(18,8)	(56,1)	(2,2)	(6,3)	(54,3)	(4,1)	(96,2)	(3,2)	(-104,1)	(1,0)	(1,0)	(1,0)	(1,0)	(1,0)	
L1D -108>	(8,5)	(109,109)	(110,36)	(56,18)	(1,9)	(55,11)	(111,4)	(59,3)	(57,3)	(2,12)	(54,2)	(-1,5)	(-104,4)	(6,2)	(60,3)	(108,1)	
L1D -107>	(54,85)	(55,8)	(56,1)	(109,3)	(110,8)	(6,1)	(91,1)	(108,1)	(5,0)	(4,0)	(1,1)	(1,0)	(1,0)	(1,0)	(1,0)	(1,0)	
L1D -106>	(108,5)	(1,38)	(2,8)	(-10,1)	(106,8)	(18,1)	(55,15)	(109,10)	(4,5)	(-54,1)	(3,1)	(114,2)	(1,0)	(1,0)	(1,0)	(1,0)	
L1D -105>	(105,1)	(89,8)	(2,2)	(5,1)	(0,2)	(108,1)	(1,0)	(1,0)	(1,0)	(1,0)	(1,0)	(1,0)	(1,0)	(1,0)	(1,0)	(1,0)	
L1D -104>	(0,16)	(104,1)	(186,10)	(52,16)	(107,9)	(96,12)	(54,6)	(1,10)	(4,10)	(8,11)	(7,1)	(6,7)	(2,1)	(164,1)	(5,2)	(-242,1)	
L1D -103>	(0,89)	(1,23)	(104,8)	(103,1)	(121,8)	(4,11)	(3,26)	(2,14)	(105,1)	(5,1)	(40,1)	(1,0)	(1,0)	(1,0)	(1,0)	(1,0)	
L1D -102>	(102,1)	(-1,1)	(116,8)	(4,2)	(0,30)	(1,8)	(3,4)	(2,6)	(52,2)	(50,1)	(5,1)	(1,0)	(1,0)	(1,0)	(1,0)	(1,0)	
L1D -101>	(-15,8)	(0,14)	(2,3)	(1,5)	(3,1)	(1,0)	(1,0)	(1,0)	(1,0)	(1,0)	(1,0)	(1,0)	(1,0)	(1,0)	(1,0)	(1,0)	
L1D -100>	(87,6)	(1,1)	(0,1)	(82,1)	(1,0)	(1,0)	(1,0)	(1,0)	(1,0)	(1,0)	(1,0)	(1,0)	(1,0)	(1,0)	(1,0)	(1,0)	
L1D -99>	(0,8)	(1,0)	(1,0)	(1,0)	(1,0)	(1,0)	(1,0)	(1,0)	(1,0)	(1,0)	(1,0)	(1,0)	(1,0)	(1,0)	(1,0)	(1,0)	
L1D -98>	(15,98)	(1,2)	(-1,6)	(80,6)	(32,2)	(65,1)	(2,0)	(9,3)	(-222,0)	(1,0)	(1,0)	(1,0)	(1,0)	(1,0)	(1,0)	(1,0)	
L1D -97>	(2,3)	(1,4)	(8,3)	(133,1)	(1,0)	(1,0)	(1,0)	(1,0)	(1,0)	(1,0)	(1,0)	(1,0)	(1,0)	(1,0)	(1,0)	(1,0)	
L1D -96>	(97,8)	(34,11)	(49,7)	(2,3)	(-32,3)	(56,1)	(46,1)	(18,2)	(-1,2)	(112,1)	(70,1)	(1,0)	(1,0)	(1,0)	(1,0)	(1,0)	
L1D -95>	(1,2)	(80,8)	(61,7)	(4,1)	(-32,3)	(3,7)	(-1,2)	(6,1)	(2,2)	(1,0)	(1,0)	(1,0)	(1,0)	(1,0)	(1,0)	(1,0)	
L1D -94>	(3,4)	(1,8)	(95,8)	(83,12)	(58,14)	(108,8)	(4,6)	(72,2)	(5,2)	(2,2)	(57,1)	(8,1)	(6,2)	(87,1)	(0,1)	(1,0)	
L1D -93>	(-1,9)	(105,8)	(-71,4)	(-63,2)	(3,1)	(0,1)	(54,1)	(1,0)	(1,0)	(1,0)	(1,0)	(1,0)	(1,0)	(1,0)	(1,0)	(1,0)	
L1D -92>	(1,1)	(70,1)	(92,8)	(2,2)	(57,1)	(196,1)	(65,1)	(87,1)	(4,2)	(1,0)	(1,0)	(1,0)	(1,0)	(1,0)	(1,0)	(1,0)	
L1D -91>	(0,1)	(2,1)	(42,7)	(6,2)	(5,2)	(74,1)	(54,2)	(1,0)	(1,0)	(1,0)	(1,0)	(1,0)	(1,0)	(1,0)	(1,0)	(1,0)	
L1D -90>	(2,2)	(-1,1)	(90,1)	(1,2)	(9,9)	(59,16)	(0,8)	(15,8)	(49,5)	(6,1)	(325,1)	(1,0)	(1,0)	(1,0)	(1,0)	(1,0)	
L1D -89>	(90,9)	(89,1)	(3,2)	(1,0)	(1,0)	(1,0)	(1,0)	(1,0)	(1,0)	(1,0)	(1,0)	(1,0)	(1,0)	(1,0)	(1,0)	(1,0)	
L1D -88>	(1,2)	(89,1)	(88,1)	(100,56)	(96,1)	(2,4)	(61,2)	(5,4)	(1,0)	(1,0)	(1,0)	(1,0)	(1,0)	(1,0)	(1,0)	(1,0)	
L1D -87>	(88,2)	(89,4)	(87,9)	(4,9)	(1,8)	(165,2)	(61,1)	(1,0)	(1,0)	(1,0)	(1,0)	(1,0)	(1,0)	(1,0)	(1,0)	(1,0)	
L1D -86>	(2,23)	(86,1)	(4,13)	(71,18)	(52,19)	(-60,4)	(60,4)	(-84,6)	(6,13)	(1,15)	(8,12)	(196,1)	(-1,2)	(-76,1)	(1,0)	(1,0)	
L1D -85>	(1,1)	(2,1)	(85,9)	(-1,5)	(54,1)	(129,2)	(-54,1)	(1,0)	(1,0)	(1,0)	(1,0)	(1,0)	(1,0)	(1,0)	(1,0)	(1,0)	
L1D -84>	(1,2)	(-35,2)	(-52,1)	(2,5)	(84,1)	(-34,8)	(155,6)	(-64,8)	(54,2)	(8,1)	(4,1)	(64,1)	(6,1)	(88,1)	(90,1)	(1,0)	
L1D -83>	(83,1)	(-9,1)	(91,20)	(26,13)	(33,7)	(79,7)	(-17,2)	(-50,1)	(-1,1)	(2,2)	(4,1)	(90,1)	(1,0)	(1,0)	(1,0)	(1,0)	
L1D -82>	(2,7)	(83,10)	(82,1)	(13,9)	(139,8)	(-11,12)	(67,6)	(8,8)	(88,14)	(1,2)	(6,2)	(61,7)	(90,2)	(40,2)	(-54,1)	(54,1)	
L1D -81>	(1,1)	(81,10)	(83,1)	(79,8)	(99,7)	(8,3)	(116,1)	(6,1)	(-58,1)	(1,0)	(1,0)	(1,0)	(1,0)	(1,0)	(1,0)	(1,0)	
L1D -80>	(2,7)	(80,6)	(22,14)	(-53,1)	(6,21)	(8,11)	(63,1)	(35,1)	(-1,1)	(4,2)	(72,1)	(53,1)	(-11,1)	(1,0)	(1,0)	(1,0)	
L1D -79>	(1,5)	(2,4)	(79,1)	(101,4)	(3,4)	(-1,4)	(4,1)	(6,1)	(1,0)	(1,0)	(1,0)	(1,0)	(1,0)	(1,0)	(1,0)	(1,0)	
L1D -78>	(78,4)	(128,1)	(2,7)	(79,2)	(1,3)	(5,1)	(-54,4)	(-1,2)	(-3,2)	(4,1)	(6,1)	(70,1)	(48,1)	(1,0)	(1,0)	(1,0)	
L1D -77>	(2,7)	(1,16)	(0,25)	(132,1)	(79,1)	(77,1)	(-1,8)	(59,5)	(114,8)	(78,1)	(3,5)	(111,1)	(-7,1)	(1,0)	(1,0)	(1,0)	
L1D -76>	(2,11)	(1,14)	(76,1)	(78,1)	(59,40)	(-4,8)	(-11,1)	(0,24)	(132,8)	(49,2)	(30,2)	(-54,1)	(4,6)	(138,1)	(32,1)	(1,0)	
L1D -75>	(76,3)	(75,1)	(59,8)	(4,4)	(104,10)	(47,3)	(12,2)	(72,2)	(6,2)	(1,4)	(2,3)	(8,1)	(1,0)	(1,0)	(1,0)	(1,0)	
L1D -74>	(32,27)	(-3,1)	(0,14)	(-4,9)	(74,1)	(107,21)	(2,10)	(8,10)	(1,8)	(82,1)	(6,2)	(-12,1)	(3,1)	(1,0)	(1,0)	(1,0)	
L1D -73>	(0,9)	(73,2)	(81,4)	(68,8)	(6,2)	(46,4)	(2,3)	(25,1)	(1,0)	(1,0)	(1,0)	(1,0)	(1,0)	(1,0)	(1,0)	(1,0)	
L1D -72>	(1,7)	(0,23)	(2,34)	(72,1)	(73,3)	(55,35)	(4,6)	(3,8)	(81,54)	(54,8)	(6,10)	(8,5)	(74,1)	(58,2)	(1,0)	(1,0)	
L1D -71>	(71,1)	(55,24)	(8,6)	(72,2)	(59,6)	(83,1)	(1,0)	(1,0)	(1,0)	(1,0)	(1,0)	(1,0)	(1,0)	(1,0)	(1,0)	(1,0)	
L1D -70>	(12,58)	(1,3)	(2,43)	(70,1)	(26,3)	(-54,3)	(8,3)	(52,2)	(71,1)	(6,1)	(-2,1)	(11,1)	(1,0)	(1,0)	(1,0)	(1,0)	
L1D -69>	(69,1)	(5,5)	(-13,8)	(59,12)	(4,8)	(-53,1)	(-54,2)	(3,12)	(6,2)	(33,2)	(11,1)	(1,0)	(1,0)	(1,0)	(1,0)	(1,0)	
L1D -68>	(1,1)	(68,4)	(140,8)	(-4,10)	(-5,8)	(2,5)	(74,1)	(43,1)	(105,1)	(7,1)	(-242,1)	(63,1)	(-54,3)	(3,1)	(4,1)	(242,1)	
L1D -67>	(63,15)	(67,2)	(0,9)	(59,82)	(1,3)	(-6,54)	(26,11)	(43,1)	(38,11)	(31,3)	(58,5)	(52,4)	(28,1)	(3,1)	(-11,1)	(1,0)	
L1D -66>	(-1,5)	(1,1)	(2,27)	(12,5)	(-2,8)	(11,1)	(74,2)	(52,2)	(3,3)	(4,3)	(15,3)	(39,1)	(0,1)	(-242,1)	(54,1)	(63,1)	
L1D -65>	(67,1)	(52,1)	(1,2)	(65,1)	(53,8)	(60,96)	(6,17)	(2,2)	(47,2)	(-432,1)	(51,8)	(4,1)	(-1,1)	(159,1)	(8,1)	(1,0)	
L1D -64>	(64,6)	(47,7)	(6,16)	(57,10)	(61,24)	(2,9)	(1,9)	(8,7)	(15,2)	(0,2)	(80,1)	(4,1)	(-9,5)	(-2,1)	(78,1)	(177,1)	
L1D -63>	(-4,9)	(3,5)	(46,43)	(52,1)	(36,7)	(53,8)	(35,5)	(-28,18)	(63,10)	(0,10)	(31,16)	(102,2)	(-5,2)	(2,1)	(62,5)	(-12,2)	
L1D -62>	(6,7)	(-45,4)	(2,53)	(-3,1)	(-44,8)	(-1,11)	(1,9)	(99,2)	(63,2)	(-206,8)	(185,8)	(105,8)	(85,8)	(8,26)	(4,12)	(33,6)	
L1D -61>	(2,110)	(29,1)	(50,2)	(-31,7)	(-4,1)	(12,11)	(32,1)	(71,1)	(124,7)	(-2,11)	(83,2)	(54,2)	(48,2)	(-3,1)	(326,1)	(6,3)	
L1D -60>	(35,22)	(4,30)	(2,37)	(8,1)	(-60,18)	(204,45)	(-23,18)	(-26,3)	(0,19)	(65,22)	(6,91)	(-104,20)	(-27,3)	(11,12)	(-28,3)	(-29,3)	
L1D -59>	(35,80)	(90,1)	(1,2)	(5,5)	(53,0)	(-5,0)	(42,0)	(6,0)	(3,4)	(2,0)	(-49,0)	(4,0)	(1,0)	(1,0)	(1,0)	(1,0)	
L1D -58>	(2,62)	(4,72)	(64,1)	(60,42)	(1,0)	(74,0)	(6,3)	(-371,0)	(48,1)	(35,8)	(22,1)	(62,0)	(58,1)	(15,1)	(12,0)	(-3,1)	
L1D -57>	(27,27)	(16,27)	(1,39)	(73,4)	(-60,3)	(60,8)	(50,2)	(39,14)	(2,6)	(56,1)	(86,7)	(3,25)	(-26,8)	(115,2)	(58,5)	(4,8)	
L1D -56>	(110,3)	(58,79)	(2,56)	(108,1)	(57,14)	(109,4)	(1,3)	(111,2)	(4,3)	(60,2)	(8,3)	(0,1)	(55,1)	(-375,0)	(6,3)	(-374,0)	
L1D -55>	(65,2)	(58,5)	(1,92)	(56,105)	(60,10)	(57,95)	(54,35)	(3,5)	(2,20)	(55,4)	(81,1)	(6,5)	(61,14)	(111,1)	(59,2)	(-372,4)	
L1D -54>	(2,83)	(110,7)	(65,3)	(55,105)	(56,114)	(54,15)	(57,15)	(-376,5)	(1,14)	(53,31)	(-54,60)	(-266,1)	(-1,41)	(109,46)	(58,3)	(108,4)	
L1D -53>	(54,127)	(-1,17)	(56,27)	(2,4)	(0,5)	(108,3)	(55,63)	(66,1)	(110,8)	(109,9)	(-54,8)	(-53,4)	(-3,2)	(47,1)	(1,13)	(-55,2)	
L1D -52>	(-432,1)	(54,79)	(-378,2)	(50,3)	(430,2)	(482,0)	(-428,0)	(486,0)	(56,4)	(-5,0)	(24,0)	(2,5)	(53,0)	(-239,0)	(-2,0)	(432,3)	
L1D -51>	(11,29)	(54,114)	(-1,50)	(0,1)	(126,8)	(-16,8)	(2,14)	(56,11)	(-4,4)	(57,20)	(60,3)	(-432,8)	(-3,7)	(53,4)	(108,3)	(-54,17)	
L1D -50>	(1,3)	(-60,1)	(54,81)	(15,2)	(48,2)	(47,11)	(430,1)	(-39,6)	(-2,22)	(31,3)	(56,61)	(60,2)	(2,8)	(52,5)	(4,1)	(146,2)	
L1D -49>	(1,14)	(96,5)	(2,7)	(-60,3)	(54,8)	(-1,3)	(-41,3)	(14,2)	(12,1)	(-6,6)	(23,11)	(-2,22)	(21,2)	(-14,2)	(-15,1)	(123,16)	
L1D -48>	(50,4)	(0,19)	(1,25)	(4,1)	(54,46)	(5,8)	(19,10)	(55,9)	(-18,1)	(13,4)	(26,10)	(-1,9)	(2,25)	(199,2)	(65,10)	(75,1)	
L1D -47>	(65,1)	(27,2)	(1,31)	(-76,8)	(74,10)	(32,1)	(56,7)	(-80,13)	(0,7)	(6,2)	(49,4)	(45,1)	(39,1)	(-104,3)	(28,2)	(8,2)	
L1D -46>	(39,2)	(45,21)	(2,14)	(18,1)	(15,8)	(62,8)	(-3,5)	(1,5)	(-5,1)	(4,5)	(6,8)	(26,27)	(0,2)	(16,4)	(55,1)	(17,1)	
L1D -45>	(20,23)	(-15,7)	(17,5)	(27,2)	(-5,2)	(-3,10)	(52,8)	(40,1)	(31,12)	(-2,2)	(3,18)	(-7,1)	(28,5)	(25,3)	(1,3)	(38,1)	
L1D -44>	(29,14)	(2,11)	(1,14)	(3,3)	(27,11)	(45,12)	(-3,13)	(19,2)	(37,1)	(4,42)	(21,8)	(46,12)	(61,7)	(35,11)	(62,12)	(-5,7)	
L1D -43>	(-1,16)	(38,10)	(-4,9)	(60,47)	(-78,2)	(1,12)	(-85,3)	(63,3)	(-12,1)	(34,3)	(59,1)	(23,2)	(74,6)	(33,1)	(4,2)	(2,1)	
L1D -42>	(22,16)	(57,20)	(34,1)	(-41,5)	(7,12)	(3,11)	(42,9)	(43,8)	(-1,3)	(2,6)	(53,3)	(1,6)	(51,8)	(60,41)	(15,2)	(33,2)	
L1D -41>	(11,1)	(57,15)	(25,4)	(-1,6)	(2,7)	(-2,2)	(170,8)	(156,8)	(18,10)	(-23,6)	(180,8)	(31,6)	(49,3)	(45,7)	(20,10)	(88,8)	
L1D -40>	(1,3)	(-7,2)	(38,18)	(6,1)	(2,15)	(-2,47)	(22,1)	(25,33)	(-3,11)	(58,9)	(63,8)	(-6,1)	(41,8)	(8,3)	(4,13)	(-16,1)	
L1D -39>	(7,2)	(-5,8)	(22,12)	(29,9)	(-36,7)	(-71,20)	(32,2)	(23,8)	(-6,3)	(11,8)	(12,12)	(4,7)	(0,5)	(37,11)	(1,13)	(8,1)	
L1D -38>	(39,5)	(36,13)	(24,4)	(4,1)	(20,9)	(2,19)	(38,39)	(-2,9)	(10,2)	(-6,4)	(42,15)	(12,8)	(22,2)	(-56,3)	(-8,2)	(69,9)	
L1D -37>	(14,3)	(38,8)	(2,1)	(-6,1)	(23,1)	(3,1)	(27,7)	(-23,7)	(-1,8)	(-16,3)	(86,7)	(9,4)	(64,1)	(45,2)	(17,2)	(26,2)	
L1D -36>	(37,10)	(36,29)	(38,59)	(5,11)	(8,30)	(3,3)	(100,11)	(49,8)	(4,2)	(42,23)	(104,7)	(2,2)	(-1,7)	(78,2)	(-6,3)	(45,1)	
L1D -35>	(-432,30)	(-6,14)	(33,5)	(44,13)	(-9,7)	(-4,1)	(8,27)	(7,1)	(98,1)	(-2,8)	(-5,1)	(-33,2)	(4,9)	(-1,29)	(88,8)	(3,2)	
L1D -34>	(3,1)	(-362,1)	(9,1)	(162,3)	(32,2)	(0,91)	(34,125)	(38,0)	(5,0)	(4,2)	(24,4)	(-41,0)	(-30,0)	(30,0)	(48,0)	(62,2)	
L1D -33>	(18,42)	(-6,88)	(5,18)	(2,13)	(1,31)	(3,1)	(6,3)	(29,38)	(-27,5)	(91,8)	(-13,22)	(-28,7)	(-1,6)	(161,3)	(-39,7)	(7,9)	
L1D -32>	(88,14)	(28,25)	(35,72)	(2,14)	(19,1)	(64,9)	(3,9)	(24,28)	(7,10)	(12,7)	(16,37)	(4,11)	(1,29)	(25,11)	(-17,31)	(-1,74)	
L1D -31>	(1,21)	(32,18)	(26,14)	(-5,10)	(14,12)	(-1,9)	(-11,9)	(-12,5)	(28,3)	(24,18)	(22,118)	(17,3)	(10,1)	(-6,10)	(-75,5)	(55,5)	
L1D -30>	(-88,56)	(31,12)	(8,21)	(18,12)	(4,28)	(34,1)	(1,19)	(0,9)	(5,9)	(24,9)	(11,3)	(12,13)	(28,9)	(58,8)	(-12,14)	(20,12)	
L1D -29>	(11,1)	(26,1)	(17,1)	(25,1)	(24,2)	(-5,98)	(9,2)	(15,5)	(7,2)	(4,1)	(12,2)	(23,2)	(19,1)	(22,2)	(6,2)	(5,2)	
L1D -28>	(8,31)	(42,38)	(57,12)	(21,10)	(2,11)	(-1,6)	(28,7)	(20,5)	(7,1)	(12,117)	(47,7)	(-5,6)	(-2,20)	(-34,7)	(15,12)	(-7,5)	
L1D -27>	(32,1)	(0,1)	(-6,2)	(1,7)	(3,1)	(15,44)	(-2,14)	(9,3)	(-13,2)	(11,4)	(74,1)	(18,43)	(19,76)	(21,5)	(13,6)	(35,2)	
L1D -26>	(-2,2)	(5,3)	(10,5)	(18,109)	(-18,1)	(22,2)	(-7,1)	(17,25)	(-1,2)	(12,17)	(-315,1)	(20,7)	(14,37)	(15,1)	(-17,3)	(26,2)	
L1D -25>	(-29,3)	(-316,12)	(1,11)	(2,4)	(17,15)	(-1,6)	(3,14)	(35,4)	(5,58)	(27,10)	(29,33)	(26,1)	(8,28)	(-9,32)	(58,10)	(159,8)	
L1D -24>	(9,35)	(22,26)	(-8,1)	(1,10)	(-1,30)	(32,7)	(23,30)	(26,42)	(2,2)	(0,9)	(18,24)	(10,84)	(4,31)	(-2,16)	(19,60)	(20,21)	
L1D -23>	(-9,29)	(37,10)	(-1,9)	(-6,60)	(4,5)	(34,35)	(1,41)	(2,10)	(151,18)	(18,16)	(3,16)	(15,21)	(24,1)	(40,6)	(6,31)	(5,13)	
L1D -22>	(-9,5)	(-21,4)	(0,4)	(-42,3)	(24,77)	(13,28)	(-23,10)	(34,2)	(-7,17)	(-2,27)	(20,6)	(-5,10)	(6,1)	(8,19)	(7,10)	(14,6)	
L1D -21>	(5,4)	(9,6)	(22,69)	(18,7)	(1,2)	(-29,2)	(31,1)	(13,8)	(10,0)	(-2,0)	(0,5)	(-21,1)	(-1,1)	(6,0)	(4,3)	(16,1)	
L1D -20>	(-2,94)	(8,43)	(12,1)	(6,64)	(-1,5)	(-7,22)	(22,116)	(-6,14)	(4,17)	(-4,22)	(5,7)	(26,29)	(-9,6)	(18,50)	(7,7)	(10,6)	
L1D -19>	(-15,17)	(-5,2)	(15,62)	(1,20)	(-9,61)	(-13,68)	(12,26)	(24,15)	(11,19)	(27,8)	(40,80)	(18,24)	(28,8)	(-6,6)	(-202,9)	(16,10)	
L1D -18>	(20,78)	(2,5)	(22,11)	(84,5)	(-2,9)	(30,9)	(26,5)	(19,1)	(24,38)	(-5,7)	(12,28)	(5,23)	(4,14)	(14,19)	(6,16)	(-10,2)	
L1D -17>	(2,13)	(16,81)	(17,111)	(29,1)	(35,34)	(15,109)	(27,45)	(3,13)	(5,107)	(13,33)	(25,4)	(-24,29)	(21,19)	(1,21)	(12,48)	(0,7)	
L1D -16>	(-12,33)	(4,54)	(6,21)	(-4,35)	(-5,17)	(-2,7)	(18,22)	(2,114)	(-18,1)	(12,19)	(-17,42)	(14,16)	(-6,29)	(24,12)	(8,35)	(22,46)	
L1D -15>	(35,8)	(15,18)	(16,3)	(0,16)	(19,3)	(-12,14)	(-1,93)	(57,5)	(10,37)	(13,21)	(1,23)	(20,59)	(-17,34)	(27,7)	(11,1)	(-2,4)	
L1D -14>	(-10,24)	(-12,22)	(9,6)	(-15,4)	(-8,63)	(16,9)	(8,31)	(6,75)	(12,36)	(-3,2)	(-13,11)	(4,53)	(22,10)	(-1,3)	(2,8)	(14,8)	
L1D -13>	(22,4)	(57,120)	(3,1)	(-17,1)	(-10,1)	(-35,1)	(6,4)	(8,6)	(-41,2)	(-8,3)	(-45,3)	(-43,3)	(-51,3)	(2,5)	(19,1)	(4,4)	
L1D -12>	(14,38)	(2,72)	(-6,18)	(-3,37)	(22,28)	(4,83)	(-5,73)	(8,99)	(26,22)	(-18,1)	(16,93)	(6,35)	(7,24)	(12,81)	(-2,19)	(10,59)	
L1D -11>	(24,17)	(-13,9)	(1,16)	(4,2)	(27,5)	(77,5)	(-3,7)	(3,1)	(12,3)	(8,21)	(0,6)	(-11,6)	(7,3)	(2,88)	(13,2)	(-41,1)	
L1D -10>	(-22,7)	(0,28)	(4,48)	(-2,51)	(12,38)	(18,27)	(13,15)	(2,38)	(24,14)	(8,28)	(6,77)	(10,90)	(-14,1)	(-6,7)	(14,48)	(26,10)	
L1D -9>	(-7,5)	(2,13)	(-11,6)	(-8,4)	(1,11)	(-2,9)	(5,93)	(7,19)	(-20,1)	(3,20)	(-9,17)	(-33,5)	(-1,6)	(50,2)	(15,5)	(6,6)	
L1D -8>	(0,41)	(-9,44)	(34,1)	(-2,31)	(12,5)	(10,78)	(2,22)	(-11,9)	(14,4)	(6,110)	(-6,38)	(5,6)	(-8,19)	(8,43)	(-1,37)	(4,22)	
L1D -7>	(6,34)	(5,10)	(4,23)	(22,1)	(-10,4)	(1,16)	(-4,19)	(8,13)	(-9,9)	(-2,34)	(-22,4)	(9,77)	(2,4)	(15,28)	(3,8)	(17,7)	
L1D -6>	(14,24)	(6,64)	(-18,31)	(10,10)	(2,28)	(-8,7)	(8,29)	(0,10)	(-6,8)	(4,12)	(19,6)	(-2,17)	(-3,9)	(1,13)	(-4,10)	(12,1)	
L1D -5>	(1,9)	(16,97)	(3,4)	(-15,2)	(5,21)	(91,4)	(-9,4)	(7,29)	(22,1)	(-21,1)	(2,16)	(4,11)	(35,10)	(17,31)	(-4,9)	(9,8)	
L1D -4>	(2,90)	(-5,10)	(-1,20)	(22,3)	(6,110)	(-6,15)	(1,13)	(8,15)	(-8,36)	(-2,29)	(0,38)	(10,61)	(4,82)	(-4,34)	(18,19)	(-12,14)	
L1D -3>	(5,49)	(-7,9)	(1,5)	(-1,11)	(4,31)	(-72,7)	(432,9)	(-24,3)	(-2,10)	(2,83)	(-3,16)	(-4,12)	(15,1)	(3,10)	(-6,4)	(-430,2)	
L1D -2>	(4,26)	(-12,11)	(6,17)	(0,9)	(-6,7)	(8,17)	(10,9)	(22,5)	(24,23)	(-16,15)	(2,67)	(-3,6)	(-4,17)	(12,14)	(-29,1)	(-2,13)	
L1D -1>	(2,99)	(-15,6)	(-53,7)	(-4,2)	(56,10)	(-6,2)	(432,4)	(-1,6)	(6,5)	(0,9)	(3,102)	(4,6)	(1,50)	(-3,7)	(10,1)	(5,20)	
L1D 0>	(173,0)	(0,101)	(-5,0)	(-4,0)	(-8,0)	(-12,0)	(1,0)	(14,0)	(-9,0)	(-31,0)	(2,0)	(-1,0)	(-17,0)	(-2,0)	(70,0)	(3,0)	
L1D 1>	(1,127)	(5,6)	(6,1)	(14,1)	(-432,1)	(-16,16)	(432,2)	(-28,7)	(34,1)	(4,12)	(-19,1)	(-32,2)	(-2,2)	(-6,1)	(3,24)	(2,102)	
L1D 2>	(54,13)	(-484,2)	(-378,1)	(12,1)	(378,1)	(-5,2)	(17,1)	(2,86)	(-24,0)	(-1,0)	(486,0)	(4,0)	(56,0)	(-54,13)	(-3,1)	(1,0)	
L1D 3>	(4,9)	(1,68)	(6,23)	(-12,4)	(-16,17)	(-2,10)	(-431,2)	(5,5)	(-14,4)	(-6,1)	(-1,24)	(3,46)	(0,1)	(2,123)	(54,1)	(22,1)	
L1D 4>	(14,3)	(-16,4)	(2,103)	(-2,3)	(12,5)	(-6,4)	(5,1)	(-25,1)	(4,20)	(8,6)	(1,15)	(-26,4)	(-3,4)	(-1,1)	(22,1)	(6,1)	
L1D 5>	(-1,36)	(-59,3)	(1,80)	(55,3)	(4,13)	(-14,17)	(20,1)	(6,4)	(-18,3)	(-3,71)	(3,84)	(0,8)	(2,56)	(5,14)	(-2,14)	(10,57)	
L1D 6>	(-2,1)	(19,1)	(-26,1)	(8,12)	(2,80)	(-22,1)	(-14,8)	(1,3)	(-8,3)	(-9,2)	(4,1)	(-27,1)	(10,1)	(6,2)	(-30,3)	(-4,0)	
L1D 7>	(22,1)	(-9,3)	(-12,5)	(-14,8)	(8,8)	(3,11)	(0,4)	(2,56)	(31,3)	(-19,5)	(-3,6)	(-1,24)	(1,85)	(-16,24)	(4,8)	(-4,14)	
L1D 8>	(-8,11)	(2,26)	(-6,2)	(12,8)	(-1,22)	(20,5)	(4,39)	(-24,2)	(-2,4)	(18,1)	(-14,24)	(8,114)	(-10,3)	(6,86)	(-5,12)	(-18,30)	
L1D 9>	(3,20)	(22,1)	(-8,41)	(-1,1)	(-6,30)	(-3,16)	(2,14)	(-17,8)	(49,4)	(4,10)	(-11,3)	(8,4)	(1,20)	(25,2)	(-46,8)	(-2,72)	
L1D 10>	(-13,46)	(-16,10)	(-24,5)	(4,8)	(-8,49)	(-4,14)	(-9,7)	(-10,69)	(-2,13)	(12,18)	(6,3)	(2,24)	(20,1)	(-12,16)	(-6,25)	(8,4)	
L1D 11>	(-11,7)	(-24,23)	(-6,4)	(1,66)	(9,1)	(-12,17)	(-5,15)	(13,3)	(-3,28)	(-20,6)	(3,103)	(2,67)	(-23,4)	(-13,2)	(-67,3)	(-2,7)	
L1D 12>	(-5,18)	(-10,40)	(2,71)	(1,29)	(-18,55)	(-3,13)	(-4,24)	(-17,51)	(-24,1)	(-8,29)	(4,43)	(-2,10)	(-6,40)	(-20,40)	(-12,55)	(-16,54)	
L1D 13>	(16,7)	(3,66)	(5,5)	(1,15)	(-50,9)	(2,19)	(-26,5)	(8,2)	(39,3)	(9,6)	(6,16)	(0,3)	(-1,6)	(4,11)	(-10,1)	(-8,5)	
L1D 14>	(-26,68)	(-12,27)	(4,36)	(-27,3)	(0,26)	(1,11)	(-2,7)	(-22,2)	(3,5)	(-8,38)	(15,2)	(-6,14)	(-4,2)	(-23,6)	(-16,1)	(2,38)	
L1D 15>	(4,70)	(-12,1)	(0,6)	(-9,51)	(-43,2)	(-6,27)	(-8,15)	(1,17)	(3,11)	(5,9)	(11,7)	(-14,16)	(20,55)	(18,12)	(-3,12)	(48,5)	
L1D 16>	(-8,113)	(-12,8)	(-14,17)	(-24,1)	(0,17)	(-17,3)	(5,3)	(1,10)	(-9,3)	(-31,4)	(-22,14)	(-2,14)	(-16,6)	(-27,17)	(-6,9)	(2,8)	
L1D 17>	(-9,122)	(-17,6)	(0,21)	(-2,4)	(-23,2)	(-20,1)	(-24,6)	(1,21)	(50,1)	(-6,3)	(-15,1)	(-12,6)	(11,1)	(12,1)	(-10,1)	(-8,4)	
L1D 18>	(-3,9)	(-6,82)	(-54,3)	(1,20)	(12,1)	(-12,14)	(4,9)	(8,14)	(-17,3)	(-9,29)	(-8,7)	(-20,5)	(-4,6)	(2,8)	(-14,11)	(-2,9)	
L1D 19>	(-7,1)	(-13,3)	(-9,4)	(-21,19)	(-34,7)	(23,2)	(7,3)	(-60,6)	(-31,4)	(-23,7)	(-14,108)	(4,10)	(2,1)	(8,10)	(-6,1)	(25,5)	
L1D 20>	(-13,11)	(6,1)	(-18,4)	(-57,6)	(-24,28)	(-8,103)	(-21,7)	(-22,33)	(-14,90)	(-12,19)	(-2,25)	(4,50)	(2,22)	(-5,9)	(-28,15)	(-16,88)	
L1D 21>	(-4,14)	(1,7)	(2,4)	(6,20)	(-5,10)	(-23,8)	(-22,12)	(9,42)	(-30,4)	(-21,21)	(-19,31)	(-12,9)	(-32,21)	(-16,65)	(15,12)	(0,1)	
L1D 22>	(1,83)	(-9,43)	(-2,7)	(-27,10)	(-4,28)	(-31,3)	(-13,5)	(-14,62)	(2,7)	(-18,51)	(-3,5)	(-21,7)	(-12,25)	(-24,7)	(-16,45)	(5,1)	
L1D 23>	(1,107)	(-30,8)	(-39,1)	(-27,52)	(2,22)	(3,7)	(-26,5)	(-24,5)	(-10,22)	(-1,6)	(-2,10)	(-36,10)	(12,4)	(-25,5)	(-22,20)	(-198,5)	
L1D 24>	(1,4)	(-8,17)	(-16,94)	(-14,40)	(-6,6)	(-4,100)	(4,12)	(-25,9)	(-22,49)	(-20,36)	(2,16)	(7,5)	(-30,1)	(-10,5)	(6,9)	(3,12)	
L1D 25>	(1,85)	(-1,21)	(32,5)	(3,98)	(0,11)	(2,82)	(-26,7)	(10,11)	(6,25)	(-24,31)	(-9,10)	(16,1)	(-22,43)	(-6,7)	(-56,52)	(-20,34)	
L1D 26>	(-24,89)	(-32,1)	(-28,27)	(-12,19)	(1,16)	(-4,15)	(-2,6)	(-6,7)	(-20,43)	(-25,9)	(-7,9)	(6,10)	(14,9)	(-14,76)	(31,32)	(-8,32)	
L1D 27>	(20,28)	(-9,6)	(-10,74)	(-1,4)	(6,11)	(15,7)	(-20,28)	(3,11)	(-12,27)	(-8,34)	(5,32)	(-14,42)	(-23,1)	(-31,13)	(-24,31)	(8,12)	
L1D 28>	(1,65)	(-21,4)	(2,37)	(-1,35)	(-2,39)	(-8,10)	(0,19)	(-29,1)	(-6,31)	(-16,53)	(-27,5)	(-26,70)	(-54,6)	(-4,10)	(-20,11)	(3,54)	
L1D 29>	(3,50)	(1,47)	(2,44)	(6,21)	(0,4)	(4,20)	(-3,53)	(5,7)	(-9,59)	(-31,21)	(-6,77)	(-19,22)	(-24,30)	(-25,17)	(-52,1)	(-5,14)	
L1D 30>	(-12,34)	(-2,10)	(22,12)	(-28,19)	(-1,18)	(1,23)	(-16,40)	(-26,17)	(-34,33)	(-10,24)	(38,8)	(3,17)	(28,50)	(17,2)	(-24,2)	(2,19)	
L1D 31>	(-29,13)	(18,2)	(-19,11)	(-28,58)	(-22,41)	(15,14)	(-3,33)	(-90,17)	(1,37)	(-6,22)	(-59,5)	(3,10)	(-10,20)	(10,12)	(20,7)	(8,5)	
L1D 32>	(5,29)	(-23,4)	(2,4)	(-21,1)	(-33,4)	(-1,5)	(0,16)	(-8,25)	(-22,8)	(32,9)	(-20,14)	(15,9)	(-16,52)	(-58,85)	(-2,31)	(-25,3)	
L1D 33>	(2,1)	(4,4)	(-10,10)	(-34,9)	(5,3)	(-32,2)	(44,24)	(-42,2)	(-30,9)	(-81,8)	(-18,19)	(46,7)	(-1,5)	(3,32)	(1,5)	(9,7)	
L1D 34>	(0,65)	(-249,1)	(1,1)	(-34,80)	(-257,1)	(-33,2)	(-28,1)	(3,1)	(-10,3)	(-12,1)	(-27,1)	(-24,0)	(-110,0)	(-2,0)	(7,0)	(-47,0)	
L1D 35>	(-29,86)	(-13,1)	(-41,1)	(1,6)	(0,1)	(2,1)	(9,6)	(3,4)	(-10,0)	(-22,1)	(-32,3)	(-28,4)	(-16,4)	(-6,0)	(-12,7)	(-20,2)	
L1D 36>	(2,58)	(-23,2)	(-22,17)	(-11,4)	(-29,16)	(-4,10)	(-19,4)	(-6,12)	(-28,7)	(-49,3)	(-64,12)	(9,5)	(-7,8)	(-1,8)	(-43,1)	(7,1)	
L1D 37>	(2,4)	(7,1)	(-5,1)	(4,38)	(-28,11)	(-98,5)	(-74,8)	(10,10)	(-104,8)	(-7,12)	(8,7)	(14,11)	(-14,8)	(-10,1)	(-9,2)	(-38,1)	
L1D 38>	(19,17)	(-1,17)	(-10,6)	(51,1)	(-25,3)	(-37,15)	(5,1)	(-2,93)	(8,9)	(-22,1)	(-34,2)	(17,1)	(-163,8)	(-12,14)	(-23,9)	(-30,10)	
L1D 39>	(-38,5)	(1,7)	(-42,15)	(7,14)	(-28,11)	(6,1)	(-24,8)	(-19,9)	(-98,10)	(-30,9)	(-41,9)	(-5,32)	(-8,9)	(-31,5)	(0,3)	(-22,50)	
L1D 40>	(-42,9)	(7,79)	(-8,6)	(-30,2)	(0,11)	(-3,19)	(2,15)	(1,81)	(-4,8)	(-36,8)	(-7,3)	(-41,2)	(-26,55)	(-67,10)	(-15,1)	(18,6)	
L1D 41>	(-33,3)	(-9,4)	(-40,3)	(-1,23)	(7,1)	(-2,1)	(-19,1)	(-49,2)	(-7,3)	(0,11)	(-20,9)	(-30,14)	(-16,9)	(-31,98)	(-12,15)	(-36,2)	
L1D 42>	(-24,5)	(5,10)	(24,1)	(-31,20)	(0,86)	(-12,8)	(96,7)	(-14,12)	(-2,3)	(-19,25)	(-67,10)	(18,15)	(-5,9)	(-35,41)	(-42,13)	(-3,14)	
L1D 43>	(-42,2)	(0,3)	(-3,2)	(-38,11)	(24,1)	(2,12)	(-52,8)	(-32,1)	(-8,1)	(-5,3)	(-39,14)	(-67,9)	(-19,1)	(-65,1)	(14,1)	(4,2)	
L1D 44>	(-22,15)	(-4,1)	(-17,5)	(-28,24)	(-3,4)	(-35,1)	(-12,8)	(1,10)	(-26,31)	(58,16)	(-5,3)	(0,15)	(-59,8)	(7,1)	(-7,2)	(-27,1)	
L1D 45>	(-17,1)	(-45,1)	(-3,1)	(-88,1)	(-19,22)	(2,1)	(-20,1)	(-5,8)	(-75,1)	(-26,5)	(-2,10)	(0,7)	(-43,4)	(-36,7)	(-28,11)	(-37,1)	
L1D 46>	(-27,2)	(-38,8)	(-43,1)	(32,16)	(-50,2)	(-24,41)	(-47,7)	(-34,1)	(-21,2)	(0,29)	(20,3)	(-5,2)	(-59,2)	(12,1)	(18,2)	(19,1)	
L1D 47>	(-1,9)	(0,9)	(24,15)	(-34,31)	(12,4)	(-10,35)	(-24,1)	(55,7)	(-17,15)	(34,5)	(-50,2)	(-86,1)	(9,3)	(4,2)	(2,7)	(17,1)	
L1D 48>	(-22,1)	(-1,2)	(-3,5)	(-17,17)	(-19,2)	(-2,34)	(-14,8)	(-72,30)	(-94,17)	(-6,3)	(0,14)	(-49,7)	(2,14)	(-45,9)	(-32,8)	(-47,4)	
L1D 49>	(-12,10)	(10,3)	(52,13)	(0,2)	(38,3)	(-59,28)	(7,3)	(-24,8)	(-28,3)	(-109,1)	(-4,4)	(-51,2)	(-50,2)	(-9,2)	(35,1)	(-22,1)	
L1D 50>	(-1,11)	(-48,1)	(-50,1)	(33,24)	(20,10)	(-19,1)	(-49,9)	(14,9)	(-33,9)	(-8,15)	(-4,15)	(4,111)	(380,16)	(47,1)	(-11,1)	(-9,3)	
L1D 51>	(3,4)	(-17,1)	(-12,9)	(-20,9)	(-54,4)	(6,10)	(4,3)	(22,1)	(-23,1)	(-55,1)	(-9,1)	(-108,1)	(-4,1)	(-2,2)	(-52,1)	(2,1)	
L1D 52>	(2,41)	(4,18)	(-3,11)	(84,13)	(-108,22)	(1,6)	(13,10)	(64,3)	(-54,10)	(380,2)	(-50,7)	(-52,24)	(-143,20)	(-14,9)	(16,7)	(-8,2)	
L1D 53>	(-54,110)	(-53,2)	(-52,5)	(-108,2)	(18,0)	(2,19)	(19,0)	(-51,1)	(-16,0)	(3,9)	(35,0)	(-49,0)	(14,0)	(-7,0)	(1,2)	(1,0)	
L1D 54>	(-430,1)	(3,4)	(376,2)	(432,2)	(2,67)	(-50,5)	(378,4)	(380,2)	(-95,1)	(-52,111)	(-53,1)	(-38,1)	(-108,1)	(-432,8)	(434,0)	(-54,0)	
L1D 55>	(1,7)	(-54,104)	(10,1)	(-53,3)	(-1,16)	(5,1)	(-52,0)	(54,2)	(55,1)	(-55,3)	(-17,0)	(-108,0)	(3,0)	(-431,0)	(2,3)	(-3,0)	
L1D 56>	(-56,1)	(-54,114)	(378,2)	(18,1)	(2,12)	(28,0)	(-1,4)	(-52,43)	(-55,4)	(4,3)	(-50,5)	(-53,2)	(1,9)	(54,0)	(-107,0)	(6,0)	
L1D 57>	(-59,58)	(10,3)	(55,2)	(54,1)	(52,1)	(-56,8)	(-55,3)	(-54,109)	(1,2)	(53,1)	(4,1)	(3,0)	(-1,4)	(18,0)	(-28,0)	(2,1)	
L1D 58>	(-56,97)	(2,22)	(-54,52)	(-2,1)	(-55,0)	(-57,2)	(-18,0)	(-52,3)	(-51,0)	(4,1)	(-3,0)	(380,0)	(-59,0)	(-26,0)	(1,1)	(1,0)	
L1D 59>	(1,30)	(2,20)	(31,17)	(-54,120)	(-1,13)	(54,33)	(3,4)	(38,9)	(-63,64)	(-22,96)	(-10,7)	(-6,9)	(-56,1)	(-3,16)	(-55,4)	(5,7)	
L1D 60>	(-54,108)	(2,34)	(-432,0)	(-59,2)	(-44,1)	(-12,0)	(-56,6)	(-29,8)	(6,5)	(14,3)	(-57,0)	(-58,0)	(-3,0)	(1,4)	(-53,0)	(-1,0)	
L1D 61>	(2,1)	(-70,1)	(-98,15)	(-60,1)	(-128,7)	(14,6)	(-32,21)	(-54,42)	(3,4)	(-63,18)	(0,8)	(-58,8)	(-429,1)	(-1,12)	(5,1)	(1,2)	
L1D 62>	(62,27)	(124,27)	(-36,8)	(38,13)	(-63,11)	(-49,10)	(-26,12)	(-61,24)	(-1,3)	(0,14)	(-54,22)	(-56,9)	(2,18)	(-27,3)	(-3,1)	(4,1)	
L1D 63>	(2,10)	(-15,9)	(-3,2)	(-98,11)	(0,7)	(36,8)	(-76,35)	(-68,16)	(-1,5)	(-10,2)	(-56,12)	(-27,2)	(-60,11)	(23,7)	(-72,2)	(3,3)	
L1D 64>	(64,98)	(0,34)	(-320,16)	(-35,15)	(-55,1)	(14,4)	(2,3)	(16,1)	(32,5)	(-28,1)	(65,6)	(-72,1)	(-245,4)	(-3,14)	(-54,31)	(-60,5)	
L1D 65>	(-66,4)	(-48,2)	(14,2)	(-53,3)	(-54,49)	(-1,3)	(-64,1)	(-46,7)	(-81,8)	(-15,12)	(-44,12)	(-60,1)	(-28,11)	(-86,10)	(-67,20)	(-8,1)	
L1D 66>	(0,8)	(-54,31)	(-65,1)	(-12,1)	(-38,1)	(-33,1)	(-70,15)	(-1,6)	(8,1)	(-16,1)	(1,0)	(1,0)	(1,0)	(1,0)	(1,0)	(1,0)	
L1D 67>	(-34,11)	(1,1)	(-3,4)	(-1,5)	(-66,1)	(-49,7)	(-26,27)	(-56,3)	(-54,27)	(-64,1)	(1,0)	(1,0)	(1,0)	(1,0)	(1,0)	(1,0)	
L1D 68>	(2,2)	(-54,6)	(-1,9)	(-67,1)	(-76,1)	(-19,9)	(-51,1)	(-64,3)	(-38,2)	(6,4)	(-107,1)	(34,2)	(242,1)	(16,3)	(4,1)	(1,0)	
L1D 69>	(3,11)	(-73,9)	(-74,9)	(-68,2)	(-83,15)	(-54,5)	(-28,8)	(0,8)	(-29,1)	(-67,1)	(-82,1)	(-66,1)	(1,0)	(1,0)	(1,0)	(1,0)	
L1D 70>	(-84,2)	(-432,1)	(-13,81)	(-69,1)	(0,18)	(3,18)	(2,1)	(-6,2)	(-82,6)	(-15,14)	(6,8)	(-65,4)	(4,1)	(30,1)	(1,1)	(-59,1)	
L1D 71>	(1,4)	(-70,1)	(-155,17)	(16,1)	(-76,8)	(-15,1)	(-132,1)	(-68,1)	(1,0)	(1,0)	(1,0)	(1,0)	(1,0)	(1,0)	(1,0)	(1,0)	
L1D 72>	(-71,1)	(-68,2)	(52,2)	(86,2)	(9,2)	(-14,2)	(2,1)	(-66,1)	(-65,1)	(1,0)	(1,0)	(1,0)	(1,0)	(1,0)	(1,0)	(1,0)	
L1D 73>	(-72,1)	(2,3)	(-71,1)	(-27,4)	(86,1)	(0,1)	(1,0)	(1,0)	(1,0)	(1,0)	(1,0)	(1,0)	(1,0)	(1,0)	(1,0)	(1,0)	
L1D 74>	(-14,1)	(0,7)	(-114,8)	(-63,21)	(-55,3)	(-75,5)	(4,1)	(-12,3)	(-26,3)	(8,2)	(-27,7)	(-28,6)	(-16,1)	(-71,1)	(-86,1)	(-24,1)	
L1D 75>	(2,21)	(0,5)	(-74,1)	(-18,1)	(4,14)	(-28,1)	(1,0)	(1,0)	(1,0)	(1,0)	(1,0)	(1,0)	(1,0)	(1,0)	(1,0)	(1,0)	
L1D 76>	(8,35)	(2,2)	(-75,2)	(-33,8)	(-17,10)	(0,5)	(-54,12)	(-80,2)	(35,1)	(1,3)	(-70,1)	(-73,2)	(1,0)	(1,0)	(1,0)	(1,0)	
L1D 77>	(-54,11)	(-1,1)	(-76,9)	(-25,32)	(4,1)	(0,1)	(2,7)	(1,5)	(-95,1)	(1,0)	(1,0)	(1,0)	(1,0)	(1,0)	(1,0)	(1,0)	
L1D 78>	(-1,2)	(-77,2)	(2,1)	(0,15)	(-54,22)	(1,1)	(-72,1)	(-94,1)	(-45,1)	(-14,1)	(-75,3)	(-42,1)	(1,0)	(1,0)	(1,0)	(1,0)	
L1D 79>	(8,19)	(-54,11)	(2,9)	(-78,1)	(-11,8)	(-48,10)	(-51,3)	(1,1)	(-73,2)	(-46,1)	(-42,1)	(9,1)	(0,1)	(-75,1)	(-24,3)	(1,0)	
L1D 80>	(-79,1)	(-96,8)	(0,10)	(-2,8)	(35,5)	(-44,1)	(-78,5)	(-54,2)	(-27,1)	(1,0)	(1,0)	(1,0)	(1,0)	(1,0)	(1,0)	(1,0)	
L1D 81>	(7,27)	(0,10)	(-80,1)	(-6,57)	(-2,9)	(-54,4)	(-78,1)	(1,0)	(1,0)	(1,0)	(1,0)	(1,0)	(1,0)	(1,0)	(1,0)	(1,0)	
L1D 82>	(2,1)	(-81,1)	(4,8)	(-54,13)	(8,1)	(-8,1)	(0,1)	(1,0)	(1,0)	(1,0)	(1,0)	(1,0)	(1,0)	(1,0)	(1,0)	(1,0)	
L1D 83>	(-33,13)	(-54,11)	(-5,1)	(-82,2)	(2,2)	(-62,24)	(-18,1)	(-12,1)	(-44,1)	(-15,3)	(-46,2)	(0,1)	(4,6)	(-32,2)	(-80,6)	(121,1)	
L1D 84>	(-168,27)	(-156,27)	(-74,9)	(-83,1)	(-71,6)	(3,1)	(-20,5)	(-6,1)	(84,1)	(-136,1)	(-54,1)	(4,1)	(1,0)	(1,0)	(1,0)	(1,0)	
L1D 85>	(-84,1)	(0,8)	(-82,8)	(-12,1)	(-86,2)	(1,0)	(1,0)	(1,0)	(1,0)	(1,0)	(1,0)	(1,0)	(1,0)	(1,0)	(1,0)	(1,0)	
L1D 86>	(-17,8)	(-98,66)	(-70,30)	(0,33)	(-85,1)	(-32,7)	(9,1)	(-87,2)	(-26,1)	(-24,4)	(11,2)	(1,0)	(1,0)	(1,0)	(1,0)	(1,0)	
L1D 87>	(-86,1)	(-5,7)	(-85,8)	(-88,1)	(1,0)	(1,0)	(1,0)	(1,0)	(1,0)	(1,0)	(1,0)	(1,0)	(1,0)	(1,0)	(1,0)	(1,0)	
L1D 88>	(-57,27)	(-87,5)	(1,1)	(-48,8)	(2,12)	(-17,4)	(-10,1)	(-14,1)	(1,0)	(1,0)	(1,0)	(1,0)	(1,0)	(1,0)	(1,0)	(1,0)	
L1D 89>	(-98,18)	(2,2)	(-88,1)	(-27,8)	(-6,8)	(8,3)	(4,1)	(-70,2)	(1,0)	(1,0)	(1,0)	(1,0)	(1,0)	(1,0)	(1,0)	(1,0)	
L1D 90>	(-89,2)	(-87,8)	(-31,8)	(8,3)	(4,1)	(1,0)	(1,0)	(1,0)	(1,0)	(1,0)	(1,0)	(1,0)	(1,0)	(1,0)	(1,0)	(1,0)	
L1D 91>	(0,31)	(-98,31)	(-70,3)	(-90,1)	(-89,1)	(-41,8)	(13,8)	(-61,8)	(-95,14)	(-34,13)	(-49,3)	(-15,4)	(2,1)	(1,0)	(1,0)	(1,0)	
L1D 92>	(-94,3)	(-89,8)	(-90,1)	(1,0)	(1,0)	(1,0)	(1,0)	(1,0)	(1,0)	(1,0)	(1,0)	(1,0)	(1,0)	(1,0)	(1,0)	(1,0)	
L1D 93>	(2,1)	(1,0)	(1,0)	(1,0)	(1,0)	(1,0)	(1,0)	(1,0)	(1,0)	(1,0)	(1,0)	(1,0)	(1,0)	(1,0)	(1,0)	(1,0)	
L1D 94>	(-91,1)	(15,1)	(0,7)	(-98,14)	(1,9)	(-4,1)	(39,1)	(1,0)	(1,0)	(1,0)	(1,0)	(1,0)	(1,0)	(1,0)	(1,0)	(1,0)	
L1D 95>	(-7,1)	(29,8)	(0,8)	(-54,1)	(1,0)	(1,0)	(1,0)	(1,0)	(1,0)	(1,0)	(1,0)	(1,0)	(1,0)	(1,0)	(1,0)	(1,0)	
L1D 96>	(-86,15)	(63,12)	(1,7)	(8,1)	(-146,1)	(-46,2)	(-26,2)	(6,1)	(1,0)	(1,0)	(1,0)	(1,0)	(1,0)	(1,0)	(1,0)	(1,0)	
L1D 97>	(36,8)	(-98,8)	(15,1)	(2,1)	(1,0)	(1,0)	(1,0)	(1,0)	(1,0)	(1,0)	(1,0)	(1,0)	(1,0)	(1,0)	(1,0)	(1,0)	
L1D 98>	(-83,1)	(66,1)	(-48,1)	(-45,1)	(1,0)	(1,0)	(1,0)	(1,0)	(1,0)	(1,0)	(1,0)	(1,0)	(1,0)	(1,0)	(1,0)	(1,0)	
L1D 99>	(-91,7)	(-12,2)	(-83,1)	(3,1)	(1,0)	(1,0)	(1,0)	(1,0)	(1,0)	(1,0)	(1,0)	(1,0)	(1,0)	(1,0)	(1,0)	(1,0)	
L1D 100>	(-102,8)	(14,11)	(-6,16)	(-16,36)	(6,4)	(-64,1)	(-12,1)	(1,0)	(1,0)	(1,0)	(1,0)	(1,0)	(1,0)	(1,0)	(1,0)	(1,0)	
L1D 101>	(28,10)	(79,3)	(3,1)	(1,0)	(1,0)	(1,0)	(1,0)	(1,0)	(1,0)	(1,0)	(1,0)	(1,0)	(1,0)	(1,0)	(1,0)	(1,0)	
L1D 102>	(0,1)	(-2,2)	(1,0)	(1,0)	(1,0)	(1,0)	(1,0)	(1,0)	(1,0)	(1,0)	(1,0)	(1,0)	(1,0)	(1,0)	(1,0)	(1,0)	
L1D 103>	(-102,1)	(3,1)	(1,0)	(1,0)	(1,0)	(1,0)	(1,0)	(1,0)	(1,0)	(1,0)	(1,0)	(1,0)	(1,0)	(1,0)	(1,0)	(1,0)	
L1D 104>	(-103,1)	(0,8)	(-36,9)	(-2,8)	(-4,8)	(1,0)	(1,0)	(1,0)	(1,0)	(1,0)	(1,0)	(1,0)	(1,0)	(1,0)	(1,0)	(1,0)	
L1D 105>	(-104,1)	(-21,8)	(-52,8)	(-110,16)	(0,8)	(4,3)	(2,1)	(3,1)	(1,0)	(1,0)	(1,0)	(1,0)	(1,0)	(1,0)	(1,0)	(1,0)	
L1D 106>	(2,1)	(-105,1)	(-103,7)	(-107,2)	(1,0)	(1,0)	(1,0)	(1,0)	(1,0)	(1,0)	(1,0)	(1,0)	(1,0)	(1,0)	(1,0)	(1,0)	
L1D 107>	(-106,1)	(-86,8)	(-3,3)	(-11,9)	(-28,14)	(3,2)	(-13,6)	(0,1)	(1,0)	(1,0)	(1,0)	(1,0)	(1,0)	(1,0)	(1,0)	(1,0)	
L1D 108>	(-175,1)	(-106,5)	(1,85)	(-53,6)	(-107,1)	(-13,4)	(3,1)	(2,2)	(-52,2)	(-105,1)	(-49,1)	(1,0)	(1,0)	(1,0)	(1,0)	(1,0)	
L1D 109>	(-51,2)	(-54,103)	(-52,6)	(1,6)	(-108,4)	(-49,0)	(2,2)	(-53,5)	(-107,4)	(3,0)	(-106,3)	(1,0)	(1,0)	(1,0)	(1,0)	(1,0)	
L1D 110>	(2,12)	(-54,120)	(-115,4)	(-107,3)	(-108,19)	(1,10)	(-53,1)	(-52,1)	(-242,0)	(1,0)	(1,0)	(1,0)	(1,0)	(1,0)	(1,0)	(1,0)	
L1D 111>	(2,37)	(-110,1)	(4,8)	(0,1)	(1,5)	(-54,35)	(-108,3)	(-432,2)	(-109,1)	(3,1)	(-49,1)	(5,1)	(-53,1)	(1,0)	(1,0)	(1,0)	
L1D 112>	(2,106)	(-12,8)	(-1,6)	(-54,15)	(-143,4)	(4,9)	(-114,2)	(6,2)	(0,3)	(-432,1)	(-378,1)	(-431,2)	(-66,1)	(1,0)	(1,0)	(1,0)	
L1D 113>	(2,14)	(0,5)	(3,2)	(4,5)	(-54,7)	(8,1)	(1,0)	(1,0)	(1,0)	(1,0)	(1,0)	(1,0)	(1,0)	(1,0)	(1,0)	(1,0)	
L1D 114>	(-90,9)	(-18,4)	(-57,4)	(4,3)	(2,6)	(8,2)	(0,1)	(1,0)	(1,0)	(1,0)	(1,0)	(1,0)	(1,0)	(1,0)	(1,0)	(1,0)	
L1D 115>	(1,1)	(-57,9)	(-18,1)	(1,0)	(1,0)	(1,0)	(1,0)	(1,0)	(1,0)	(1,0)	(1,0)	(1,0)	(1,0)	(1,0)	(1,0)	(1,0)	
L1D 116>	(-12,8)	(-84,8)	(-74,1)	(2,1)	(1,0)	(1,0)	(1,0)	(1,0)	(1,0)	(1,0)	(1,0)	(1,0)	(1,0)	(1,0)	(1,0)	(1,0)	
L1D 117>	(1,0)	(1,0)	(1,0)	(1,0)	(1,0)	(1,0)	(1,0)	(1,0)	(1,0)	(1,0)	(1,0)	(1,0)	(1,0)	(1,0)	(1,0)	(1,0)	
L1D 118>	(15,8)	(1,0)	(1,0)	(1,0)	(1,0)	(1,0)	(1,0)	(1,0)	(1,0)	(1,0)	(1,0)	(1,0)	(1,0)	(1,0)	(1,0)	(1,0)	
L1D 119>	(0,1)	(1,0)	(1,0)	(1,0)	(1,0)	(1,0)	(1,0)	(1,0)	(1,0)	(1,0)	(1,0)	(1,0)	(1,0)	(1,0)	(1,0)	(1,0)	
L1D 120>	(-119,1)	(-151,7)	(0,2)	(1,6)	(57,1)	(1,0)	(1,0)	(1,0)	(1,0)	(1,0)	(1,0)	(1,0)	(1,0)	(1,0)	(1,0)	(1,0)	
L1D 121>	(2,13)	(-121,99)	(0,58)	(-242,48)	(242,40)	(-363,50)	(121,18)	(25,1)	(10,8)	(-1,8)	(-119,18)	(-240,19)	(-187,1)	(-215,1)	(-19,1)	(-170,1)	
L1D 122>	(-121,1)	(-120,5)	(2,3)	(8,2)	(1,0)	(1,0)	(1,0)	(1,0)	(1,0)	(1,0)	(1,0)	(1,0)	(1,0)	(1,0)	(1,0)	(1,0)	
L1D 123>	(-122,2)	(-69,11)	(2,4)	(-50,14)	(-121,36)	(0,16)	(-30,3)	(5,1)	(-78,1)	(1,0)	(1,0)	(1,0)	(1,0)	(1,0)	(1,0)	(1,0)	
L1D 124>	(0,9)	(-248,18)	(2,1)	(-123,1)	(-61,8)	(6,4)	(-120,2)	(1,0)	(1,0)	(1,0)	(1,0)	(1,0)	(1,0)	(1,0)	(1,0)	(1,0)	
L1D 125>	(-124,2)	(6,3)	(-122,6)	(2,1)	(1,0)	(1,0)	(1,0)	(1,0)	(1,0)	(1,0)	(1,0)	(1,0)	(1,0)	(1,0)	(1,0)	(1,0)	
L1D 126>	(-125,1)	(-55,8)	(-14,1)	(1,0)	(1,0)	(1,0)	(1,0)	(1,0)	(1,0)	(1,0)	(1,0)	(1,0)	(1,0)	(1,0)	(1,0)	(1,0)	
L1D 127>	(-126,1)	(-124,6)	(1,0)	(1,0)	(1,0)	(1,0)	(1,0)	(1,0)	(1,0)	(1,0)	(1,0)	(1,0)	(1,0)	(1,0)	(1,0)	(1,0)	
L1D 128>	(-127,1)	(-4,1)	(-124,2)	(6,1)	(1,0)	(1,0)	(1,0)	(1,0)	(1,0)	(1,0)	(1,0)	(1,0)	(1,0)	(1,0)	(1,0)	(1,0)	
L1D 129>	(129,88)	(-260,87)	(-129,43)	(-131,43)	(-127,1)	(-130,4)	(-86,2)	(1,0)	(1,0)	(1,0)	(1,0)	(1,0)	(1,0)	(1,0)	(1,0)	(1,0)	
L1D 130>	(2,9)	(-129,1)	(6,1)	(1,0)	(1,0)	(1,0)	(1,0)	(1,0)	(1,0)	(1,0)	(1,0)	(1,0)	(1,0)	(1,0)	(1,0)	(1,0)	
L1D 131>	(-130,1)	(-80,1)	(-127,1)	(1,0)	(1,0)	(1,0)	(1,0)	(1,0)	(1,0)	(1,0)	(1,0)	(1,0)	(1,0)	(1,0)	(1,0)	(1,0)	
L1D 132>	(0,9)	(-131,2)	(-129,6)	(1,0)	(1,0)	(1,0)	(1,0)	(1,0)	(1,0)	(1,0)	(1,0)	(1,0)	(1,0)	(1,0)	(1,0)	(1,0)	
L1D 133>	(-132,1)	(4,8)	(6,1)	(-83,1)	(1,0)	(1,0)	(1,0)	(1,0)	(1,0)	(1,0)	(1,0)	(1,0)	(1,0)	(1,0)	(1,0)	(1,0)	
L1D 134>	(-133,2)	(-131,6)	(-19,1)	(-128,1)	(1,0)	(1,0)	(1,0)	(1,0)	(1,0)	(1,0)	(1,0)	(1,0)	(1,0)	(1,0)	(1,0)	(1,0)	
L1D 135>	(-1,1)	(-134,5)	(-6,7)	(-115,1)	(121,2)	(70,1)	(-131,1)	(-3,1)	(1,0)	(1,0)	(1,0)	(1,0)	(1,0)	(1,0)	(1,0)	(1,0)	
L1D 136>	(-135,1)	(-84,1)	(-242,1)	(2,1)	(1,0)	(1,0)	(1,0)	(1,0)	(1,0)	(1,0)	(1,0)	(1,0)	(1,0)	(1,0)	(1,0)	(1,0)	
L1D 137>	(-136,1)	(1,0)	(1,0)	(1,0)	(1,0)	(1,0)	(1,0)	(1,0)	(1,0)	(1,0)	(1,0)	(1,0)	(1,0)	(1,0)	(1,0)	(1,0)	
L1D 138>	(2,1)	(-137,1)	(-135,7)	(-86,1)	(-242,1)	(19,1)	(1,0)	(1,0)	(1,0)	(1,0)	(1,0)	(1,0)	(1,0)	(1,0)	(1,0)	(1,0)	
L1D 139>	(-138,2)	(-121,8)	(-47,1)	(1,2)	(-134,1)	(1,0)	(1,0)	(1,0)	(1,0)	(1,0)	(1,0)	(1,0)	(1,0)	(1,0)	(1,0)	(1,0)	
L1D 140>	(-139,1)	(-38,8)	(-137,4)	(4,1)	(0,1)	(1,0)	(1,0)	(1,0)	(1,0)	(1,0)	(1,0)	(1,0)	(1,0)	(1,0)	(1,0)	(1,0)	
L1D 141>	(-138,3)	(1,0)	(1,0)	(1,0)	(1,0)	(1,0)	(1,0)	(1,0)	(1,0)	(1,0)	(1,0)	(1,0)	(1,0)	(1,0)	(1,0)	(1,0)	
L1D 142>	(1,2)	(2,3)	(-141,2)	(-242,1)	(1,0)	(1,0)	(1,0)	(1,0)	(1,0)	(1,0)	(1,0)	(1,0)	(1,0)	(1,0)	(1,0)	(1,0)	
L1D 143>	(2,6)	(1,7)	(-20,1)	(1,0)	(1,0)	(1,0)	(1,0)	(1,0)	(1,0)	(1,0)	(1,0)	(1,0)	(1,0)	(1,0)	(1,0)	(1,0)	
L1D 144>	(2,9)	(1,1)	(1,0)	(1,0)	(1,0)	(1,0)	(1,0)	(1,0)	(1,0)	(1,0)	(1,0)	(1,0)	(1,0)	(1,0)	(1,0)	(1,0)	
L1D 145>	(1,0)	(1,0)	(1,0)	(1,0)	(1,0)	(1,0)	(1,0)	(1,0)	(1,0)	(1,0)	(1,0)	(1,0)	(1,0)	(1,0)	(1,0)	(1,0)	
L1D 146>	(-86,6)	(1,0)	(1,0)	(1,0)	(1,0)	(1,0)	(1,0)	(1,0)	(1,0)	(1,0)	(1,0)	(1,0)	(1,0)	(1,0)	(1,0)	(1,0)	
L1D 147>	(-47,1)	(2,1)	(1,0)	(1,0)	(1,0)	(1,0)	(1,0)	(1,0)	(1,0)	(1,0)	(1,0)	(1,0)	(1,0)	(1,0)	(1,0)	(1,0)	
L1D 148>	(-13,1)	(26,1)	(-1,1)	(1,0)	(1,0)	(1,0)	(1,0)	(1,0)	(1,0)	(1,0)	(1,0)	(1,0)	(1,0)	(1,0)	(1,0)	(1,0)	
L1D 149>	(0,2)	(1,0)	(1,0)	(1,0)	(1,0)	(1,0)	(1,0)	(1,0)	(1,0)	(1,0)	(1,0)	(1,0)	(1,0)	(1,0)	(1,0)	(1,0)	
L1D 150>	(-149,2)	(0,6)	(1,1)	(-40,1)	(1,0)	(1,0)	(1,0)	(1,0)	(1,0)	(1,0)	(1,0)	(1,0)	(1,0)	(1,0)	(1,0)	(1,0)	
L1D 151>	(22,7)	(-152,18)	(-150,1)	(-120,1)	(2,1)	(-5,1)	(1,0)	(1,0)	(1,0)	(1,0)	(1,0)	(1,0)	(1,0)	(1,0)	(1,0)	(1,0)	
[...]
L1D 472>	(1,0)	(1,0)	(1,0)	(1,0)	(1,0)	(1,0)	(1,0)	(1,0)	(1,0)	(1,0)	(1,0)	(1,0)	(1,0)	(1,0)	(1,0)	(1,0)	
L1D 473>	(1,0)	(1,0)	(1,0)	(1,0)	(1,0)	(1,0)	(1,0)	(1,0)	(1,0)	(1,0)	(1,0)	(1,0)	(1,0)	(1,0)	(1,0)	(1,0)	
L1D 474>	(1,0)	(1,0)	(1,0)	(1,0)	(1,0)	(1,0)	(1,0)	(1,0)	(1,0)	(1,0)	(1,0)	(1,0)	(1,0)	(1,0)	(1,0)	(1,0)	
L1D 475>	(1,0)	(1,0)	(1,0)	(1,0)	(1,0)	(1,0)	(1,0)	(1,0)	(1,0)	(1,0)	(1,0)	(1,0)	(1,0)	(1,0)	(1,0)	(1,0)	
L1D 476>	(-378,1)	(1,0)	(1,0)	(1,0)	(1,0)	(1,0)	(1,0)	(1,0)	(1,0)	(1,0)	(1,0)	(1,0)	(1,0)	(1,0)	(1,0)	(1,0)	
L1D 477>	(1,0)	(1,0)	(1,0)	(1,0)	(1,0)	(1,0)	(1,0)	(1,0)	(1,0)	(1,0)	(1,0)	(1,0)	(1,0)	(1,0)	(1,0)	(1,0)	
L1D 478>	(1,0)	(1,0)	(1,0)	(1,0)	(1,0)	(1,0)	(1,0)	(1,0)	(1,0)	(1,0)	(1,0)	(1,0)	(1,0)	(1,0)	(1,0)	(1,0)	
L1D 479>	(1,0)	(1,0)	(1,0)	(1,0)	(1,0)	(1,0)	(1,0)	(1,0)	(1,0)	(1,0)	(1,0)	(1,0)	(1,0)	(1,0)	(1,0)	(1,0)	
L1D 480>	(1,0)	(1,0)	(1,0)	(1,0)	(1,0)	(1,0)	(1,0)	(1,0)	(1,0)	(1,0)	(1,0)	(1,0)	(1,0)	(1,0)	(1,0)	(1,0)	
L1D 481>	(1,0)	(1,0)	(1,0)	(1,0)	(1,0)	(1,0)	(1,0)	(1,0)	(1,0)	(1,0)	(1,0)	(1,0)	(1,0)	(1,0)	(1,0)	(1,0)	
L1D 482>	(-432,7)	(-428,3)	(-52,1)	(1,0)	(1,0)	(1,0)	(1,0)	(1,0)	(1,0)	(1,0)	(1,0)	(1,0)	(1,0)	(1,0)	(1,0)	(1,0)	
L1D 483>	(1,0)	(1,0)	(1,0)	(1,0)	(1,0)	(1,0)	(1,0)	(1,0)	(1,0)	(1,0)	(1,0)	(1,0)	(1,0)	(1,0)	(1,0)	(1,0)	
L1D 484>	(2,12)	(0,18)	(-484,6)	(-242,9)	(-430,7)	(-482,17)	(-52,1)	(-121,7)	(-54,1)	(-432,1)	(-119,2)	(1,0)	(1,0)	(1,0)	(1,0)	(1,0)	
L1D 485>	(1,0)	(1,0)	(1,0)	(1,0)	(1,0)	(1,0)	(1,0)	(1,0)	(1,0)	(1,0)	(1,0)	(1,0)	(1,0)	(1,0)	(1,0)	(1,0)	
L1D 486>	(-484,107)	(-432,14)	(2,5)	(-54,1)	(-482,4)	(-52,0)	(-480,0)	(1,0)	(1,0)	(1,0)	(1,0)	(1,0)	(1,0)	(1,0)	(1,0)	(1,0)	
L1D 487>	(1,0)	(1,0)	(1,0)	(1,0)	(1,0)	(1,0)	(1,0)	(1,0)	(1,0)	(1,0)	(1,0)	(1,0)	(1,0)	(1,0)	(1,0)	(1,0)	
L1D 488>	(-432,5)	(-486,36)	(-482,1)	(-484,3)	(2,1)	(1,0)	(1,0)	(1,0)	(1,0)	(1,0)	(1,0)	(1,0)	(1,0)	(1,0)	(1,0)	(1,0)	
L1D 489>	(1,0)	(1,0)	(1,0)	(1,0)	(1,0)	(1,0)	(1,0)	(1,0)	(1,0)	(1,0)	(1,0)	(1,0)	(1,0)	(1,0)	(1,0)	(1,0)	
L1D 490>	(-432,1)	(-484,3)	(-486,4)	(1,0)	(1,0)	(1,0)	(1,0)	(1,0)	(1,0)	(1,0)	(1,0)	(1,0)	(1,0)	(1,0)	(1,0)	(1,0)	
L1D 491>	(1,0)	(1,0)	(1,0)	(1,0)	(1,0)	(1,0)	(1,0)	(1,0)	(1,0)	(1,0)	(1,0)	(1,0)	(1,0)	(1,0)	(1,0)	(1,0)	
L1D 492>	(1,0)	(1,0)	(1,0)	(1,0)	(1,0)	(1,0)	(1,0)	(1,0)	(1,0)	(1,0)	(1,0)	(1,0)	(1,0)	(1,0)	(1,0)	(1,0)	
L1D 493>	(1,0)	(1,0)	(1,0)	(1,0)	(1,0)	(1,0)	(1,0)	(1,0)	(1,0)	(1,0)	(1,0)	(1,0)	(1,0)	(1,0)	(1,0)	(1,0)	
L1D 494>	(1,0)	(1,0)	(1,0)	(1,0)	(1,0)	(1,0)	(1,0)	(1,0)	(1,0)	(1,0)	(1,0)	(1,0)	(1,0)	(1,0)	(1,0)	(1,0)	
L1D 495>	(1,0)	(1,0)	(1,0)	(1,0)	(1,0)	(1,0)	(1,0)	(1,0)	(1,0)	(1,0)	(1,0)	(1,0)	(1,0)	(1,0)	(1,0)	(1,0)	
L1D 496>	(1,0)	(1,0)	(1,0)	(1,0)	(1,0)	(1,0)	(1,0)	(1,0)	(1,0)	(1,0)	(1,0)	(1,0)	(1,0)	(1,0)	(1,0)	(1,0)	
L1D 497>	(1,0)	(1,0)	(1,0)	(1,0)	(1,0)	(1,0)	(1,0)	(1,0)	(1,0)	(1,0)	(1,0)	(1,0)	(1,0)	(1,0)	(1,0)	(1,0)	
L1D 498>	(1,0)	(1,0)	(1,0)	(1,0)	(1,0)	(1,0)	(1,0)	(1,0)	(1,0)	(1,0)	(1,0)	(1,0)	(1,0)	(1,0)	(1,0)	(1,0)	
L1D 499>	(1,0)	(1,0)	(1,0)	(1,0)	(1,0)	(1,0)	(1,0)	(1,0)	(1,0)	(1,0)	(1,0)	(1,0)	(1,0)	(1,0)	(1,0)	(1,0)	
L1D 500>	(1,0)	(1,0)	(1,0)	(1,0)	(1,0)	(1,0)	(1,0)	(1,0)	(1,0)	(1,0)	(1,0)	(1,0)	(1,0)	(1,0)	(1,0)	(1,0)	
L1D 501>	(1,0)	(1,0)	(1,0)	(1,0)	(1,0)	(1,0)	(1,0)	(1,0)	(1,0)	(1,0)	(1,0)	(1,0)	(1,0)	(1,0)	(1,0)	(1,0)	
L1D 502>	(1,0)	(1,0)	(1,0)	(1,0)	(1,0)	(1,0)	(1,0)	(1,0)	(1,0)	(1,0)	(1,0)	(1,0)	(1,0)	(1,0)	(1,0)	(1,0)	
L1D 503>	(1,0)	(1,0)	(1,0)	(1,0)	(1,0)	(1,0)	(1,0)	(1,0)	(1,0)	(1,0)	(1,0)	(1,0)	(1,0)	(1,0)	(1,0)	(1,0)	
L1D 504>	(1,0)	(1,0)	(1,0)	(1,0)	(1,0)	(1,0)	(1,0)	(1,0)	(1,0)	(1,0)	(1,0)	(1,0)	(1,0)	(1,0)	(1,0)	(1,0)	
L1D 505>	(1,0)	(1,0)	(1,0)	(1,0)	(1,0)	(1,0)	(1,0)	(1,0)	(1,0)	(1,0)	(1,0)	(1,0)	(1,0)	(1,0)	(1,0)	(1,0)	
L1D 506>	(1,0)	(1,0)	(1,0)	(1,0)	(1,0)	(1,0)	(1,0)	(1,0)	(1,0)	(1,0)	(1,0)	(1,0)	(1,0)	(1,0)	(1,0)	(1,0)	
L1D 507>	(1,0)	(1,0)	(1,0)	(1,0)	(1,0)	(1,0)	(1,0)	(1,0)	(1,0)	(1,0)	(1,0)	(1,0)	(1,0)	(1,0)	(1,0)	(1,0)	
L1D 508>	(-506,1)	(1,0)	(1,0)	(1,0)	(1,0)	(1,0)	(1,0)	(1,0)	(1,0)	(1,0)	(1,0)	(1,0)	(1,0)	(1,0)	(1,0)	(1,0)	
L1D 509>	(1,0)	(1,0)	(1,0)	(1,0)	(1,0)	(1,0)	(1,0)	(1,0)	(1,0)	(1,0)	(1,0)	(1,0)	(1,0)	(1,0)	(1,0)	(1,0)	
L1D 510>	(-507,5)	(-508,1)	(1,0)	(1,0)	(1,0)	(1,0)	(1,0)	(1,0)	(1,0)	(1,0)	(1,0)	(1,0)	(1,0)	(1,0)	(1,0)	(1,0)	
L1D 511>	(1,0)	(1,0)	(1,0)	(1,0)	(1,0)	(1,0)	(1,0)	(1,0)	(1,0)	(1,0)	(1,0)	(1,0)	(1,0)	(1,0)	(1,0)	(1,0)	

L2C -64>	(-1,8)	(1,151)	(4,11)	(8,1)	(-9,3)	(-5,18)	(5,6)	(3,10)	(-40,5)	(-2,5)	(-6,6)	(2,12)	(7,8)	(54,2)	(-8,3)	(-3,8)	
L2C -63>	(1,204)	(2,3)	(9,1)	(54,1)	(7,1)	(6,1)	(33,1)	(13,0)	(5,0)	(3,1)	(1,0)	(1,0)	(1,0)	(1,0)	(1,0)	(1,0)	
L2C -62>	(1,64)	(63,2)	(4,8)	(6,1)	(45,2)	(60,4)	(2,1)	(1,0)	(1,0)	(1,0)	(1,0)	(1,0)	(1,0)	(1,0)	(1,0)	(1,0)	
L2C -61>	(1,106)	(62,8)	(14,1)	(2,12)	(39,1)	(5,3)	(61,2)	(4,3)	(7,1)	(6,1)	(60,1)	(46,1)	(1,0)	(1,0)	(1,0)	(1,0)	
L2C -60>	(61,23)	(9,1)	(1,90)	(7,2)	(28,1)	(5,5)	(3,2)	(-2,1)	(45,2)	(54,1)	(4,2)	(30,1)	(60,2)	(2,3)	(6,1)	(31,1)	
L2C -59>	(1,93)	(21,1)	(28,1)	(3,1)	(13,1)	(61,1)	(4,1)	(2,3)	(60,1)	(5,1)	(0,2)	(1,0)	(1,0)	(1,0)	(1,0)	(1,0)	
L2C -58>	(1,77)	(7,1)	(9,1)	(3,2)	(60,1)	(59,12)	(14,1)	(2,1)	(27,1)	(47,1)	(54,1)	(25,1)	(45,1)	(-3,1)	(5,1)	(0,1)	
L2C -57>	(1,102)	(58,12)	(2,3)	(3,3)	(7,3)	(51,2)	(4,2)	(54,1)	(15,1)	(-4,1)	(1,0)	(1,0)	(1,0)	(1,0)	(1,0)	(1,0)	
L2C -56>	(1,119)	(58,2)	(7,4)	(57,11)	(9,1)	(-1,1)	(14,4)	(54,5)	(21,1)	(3,4)	(20,1)	(48,2)	(2,3)	(59,1)	(52,2)	(60,1)	
L2C -55>	(1,110)	(2,6)	(56,11)	(5,1)	(8,9)	(4,2)	(54,3)	(12,1)	(36,1)	(3,1)	(-1,1)	(60,1)	(1,0)	(1,0)	(1,0)	(1,0)	
L2C -54>	(55,211)	(1,183)	(4,7)	(56,6)	(7,5)	(57,3)	(2,9)	(0,1)	(47,2)	(54,1)	(6,1)	(53,1)	(-6,1)	(-3,1)	(52,1)	(3,3)	
L2C -53>	(54,189)	(1,88)	(55,2)	(7,1)	(2,2)	(30,0)	(6,0)	(26,0)	(8,2)	(53,2)	(-1,0)	(5,2)	(0,1)	(3,0)	(1,0)	(1,0)	
L2C -52>	(1,104)	(54,3)	(3,4)	(55,1)	(2,5)	(5,1)	(53,4)	(8,1)	(52,1)	(1,0)	(1,0)	(1,0)	(1,0)	(1,0)	(1,0)	(1,0)	
L2C -51>	(1,61)	(52,4)	(7,2)	(2,2)	(14,1)	(-5,1)	(54,3)	(50,1)	(-12,1)	(46,1)	(9,1)	(55,1)	(-3,1)	(1,0)	(1,0)	(1,0)	
L2C -50>	(1,71)	(28,1)	(52,1)	(24,1)	(2,6)	(-3,1)	(-6,2)	(3,4)	(30,1)	(50,3)	(46,3)	(5,3)	(-13,1)	(4,1)	(6,1)	(54,2)	
L2C -49>	(-3,1)	(1,40)	(16,5)	(49,7)	(54,1)	(47,1)	(53,1)	(50,2)	(-6,1)	(45,2)	(46,1)	(40,1)	(-7,1)	(8,1)	(1,0)	(1,0)	
L2C -48>	(1,62)	(32,6)	(2,3)	(54,2)	(49,3)	(16,11)	(48,5)	(8,2)	(0,1)	(3,1)	(-6,2)	(45,1)	(6,1)	(11,1)	(21,1)	(42,1)	
L2C -47>	(27,17)	(48,117)	(1,70)	(2,4)	(24,2)	(7,18)	(54,4)	(8,3)	(46,1)	(47,1)	(-7,1)	(53,1)	(20,1)	(-15,1)	(6,1)	(51,1)	
L2C -46>	(1,19)	(-7,3)	(20,1)	(47,3)	(30,1)	(8,1)	(7,2)	(2,1)	(41,2)	(32,5)	(31,3)	(9,1)	(46,1)	(23,1)	(27,1)	(15,2)	
L2C -45>	(41,3)	(1,53)	(-1,2)	(6,1)	(8,2)	(15,5)	(30,3)	(9,1)	(-6,1)	(2,1)	(1,0)	(1,0)	(1,0)	(1,0)	(1,0)	(1,0)	
L2C -44>	(1,31)	(2,3)	(7,1)	(-2,1)	(23,4)	(40,1)	(33,1)	(-7,1)	(48,1)	(61,1)	(-8,3)	(41,1)	(-4,1)	(4,1)	(16,1)	(50,1)	
L2C -43>	(1,63)	(-6,2)	(61,2)	(11,1)	(8,3)	(-9,1)	(41,1)	(54,1)	(-1,1)	(21,1)	(20,1)	(7,1)	(3,2)	(34,1)	(1,0)	(1,0)	
L2C -42>	(-1,8)	(1,45)	(8,1)	(41,2)	(-3,1)	(2,1)	(-7,1)	(1,0)	(1,0)	(1,0)	(1,0)	(1,0)	(1,0)	(1,0)	(1,0)	(1,0)	
L2C -41>	(-3,1)	(40,2)	(1,41)	(2,3)	(35,1)	(41,30)	(42,1)	(7,2)	(-1,3)	(8,1)	(54,1)	(15,2)	(1,0)	(1,0)	(1,0)	(1,0)	
L2C -40>	(1,55)	(27,9)	(-1,3)	(12,2)	(41,12)	(0,14)	(40,28)	(7,4)	(-7,2)	(3,1)	(42,1)	(54,1)	(20,1)	(32,1)	(4,2)	(34,3)	
L2C -39>	(8,1)	(16,1)	(1,81)	(28,1)	(7,5)	(31,3)	(-6,7)	(12,1)	(-1,2)	(2,1)	(-7,1)	(13,1)	(6,1)	(1,0)	(1,0)	(1,0)	
L2C -38>	(4,1)	(-6,2)	(1,49)	(-4,1)	(47,1)	(-15,1)	(7,1)	(12,1)	(3,1)	(1,0)	(1,0)	(1,0)	(1,0)	(1,0)	(1,0)	(1,0)	
L2C -37>	(14,1)	(2,9)	(1,72)	(-1,2)	(9,8)	(-2,1)	(54,3)	(38,1)	(-7,1)	(7,4)	(8,1)	(4,1)	(32,1)	(0,1)	(25,1)	(1,0)	
L2C -36>	(-3,1)	(1,34)	(2,1)	(35,3)	(10,1)	(7,6)	(46,1)	(6,1)	(37,1)	(15,2)	(17,1)	(5,1)	(1,0)	(1,0)	(1,0)	(1,0)	
L2C -35>	(-1,2)	(7,2)	(1,50)	(0,1)	(19,5)	(26,6)	(45,6)	(46,2)	(30,1)	(5,1)	(16,2)	(-11,1)	(-15,1)	(10,1)	(36,3)	(20,2)	
L2C -34>	(1,60)	(3,3)	(9,1)	(-1,4)	(7,2)	(4,2)	(-19,1)	(13,1)	(2,2)	(38,1)	(27,1)	(54,2)	(-3,1)	(24,1)	(30,1)	(-7,1)	
L2C -33>	(33,2)	(-1,2)	(1,71)	(17,8)	(2,3)	(-7,2)	(27,6)	(16,2)	(0,1)	(45,3)	(7,4)	(20,2)	(-6,3)	(46,2)	(30,3)	(13,1)	
L2C -32>	(6,2)	(1,94)	(7,3)	(32,4)	(46,3)	(30,1)	(44,1)	(16,13)	(-15,4)	(28,1)	(2,3)	(-1,9)	(25,1)	(3,3)	(4,1)	(23,1)	
L2C -31>	(2,5)	(1,108)	(54,3)	(8,5)	(3,4)	(-30,1)	(46,7)	(7,7)	(41,8)	(23,1)	(-1,9)	(-7,2)	(5,1)	(45,2)	(15,4)	(32,3)	
L2C -30>	(1,64)	(-1,7)	(-7,6)	(15,20)	(45,29)	(54,2)	(33,1)	(-16,2)	(46,16)	(-15,7)	(31,9)	(2,4)	(-30,3)	(-23,1)	(7,2)	(-6,1)	
L2C -29>	(1,62)	(-7,7)	(-1,10)	(2,5)	(8,1)	(10,1)	(9,1)	(-6,3)	(30,1)	(17,1)	(1,0)	(1,0)	(1,0)	(1,0)	(1,0)	(1,0)	
L2C -28>	(-6,3)	(1,77)	(4,2)	(0,2)	(34,1)	(35,1)	(19,2)	(8,2)	(29,3)	(9,1)	(-1,3)	(21,1)	(2,3)	(-7,2)	(3,1)	(24,1)	
L2C -27>	(35,1)	(29,1)	(-7,7)	(28,1)	(33,5)	(1,42)	(22,1)	(-1,3)	(7,5)	(8,2)	(3,1)	(27,3)	(-2,1)	(-36,1)	(2,1)	(1,0)	
L2C -26>	(27,8)	(40,1)	(13,3)	(1,62)	(-1,6)	(2,5)	(7,3)	(-3,4)	(-7,5)	(0,1)	(33,4)	(19,1)	(6,1)	(-8,1)	(14,1)	(4,1)	
L2C -25>	(3,2)	(-1,5)	(1,46)	(2,3)	(5,2)	(15,1)	(35,1)	(25,1)	(-7,5)	(7,5)	(26,1)	(20,1)	(14,1)	(6,1)	(24,1)	(4,1)	
L2C -24>	(1,87)	(7,5)	(0,6)	(2,6)	(13,2)	(-7,1)	(38,1)	(6,6)	(-6,1)	(4,1)	(8,1)	(45,1)	(16,2)	(9,1)	(-9,1)	(24,1)	
L2C -23>	(1,79)	(23,3)	(4,4)	(0,1)	(2,8)	(3,2)	(15,2)	(31,3)	(26,1)	(16,2)	(7,2)	(-3,2)	(-1,4)	(-7,2)	(6,1)	(54,1)	
L2C -22>	(1,96)	(-15,1)	(-7,2)	(23,2)	(2,12)	(16,2)	(4,10)	(10,8)	(22,8)	(32,2)	(13,1)	(19,2)	(6,2)	(30,1)	(18,1)	(15,1)	
L2C -21>	(1,84)	(7,11)	(-7,3)	(22,6)	(16,4)	(-29,1)	(2,12)	(6,1)	(15,1)	(-37,1)	(-4,1)	(31,3)	(4,1)	(35,1)	(-38,1)	(-3,1)	
L2C -20>	(27,105)	(7,39)	(1,127)	(2,2)	(4,1)	(-7,2)	(16,4)	(-20,18)	(3,1)	(-6,1)	(-15,1)	(30,6)	(-13,2)	(-30,2)	(13,6)	(-1,1)	
L2C -19>	(1,131)	(20,2)	(8,5)	(9,3)	(26,1)	(-7,2)	(2,5)	(7,4)	(3,1)	(6,2)	(-1,1)	(15,2)	(4,1)	(5,1)	(1,0)	(1,0)	
L2C -18>	(1,89)	(-30,3)	(35,2)	(26,3)	(-7,4)	(8,8)	(6,1)	(2,10)	(13,2)	(19,4)	(31,1)	(30,2)	(-1,1)	(-20,1)	(24,2)	(11,1)	
L2C -17>	(1,77)	(30,1)	(-7,5)	(-5,1)	(15,2)	(-30,4)	(18,1)	(7,3)	(12,6)	(2,6)	(-44,1)	(4,2)	(17,1)	(46,1)	(3,1)	(-40,1)	
L2C -16>	(1,115)	(2,9)	(3,2)	(0,12)	(16,94)	(31,3)	(-17,2)	(-32,6)	(-33,2)	(15,2)	(17,9)	(-30,9)	(-1,3)	(-7,4)	(-15,4)	(30,2)	
L2C -15>	(1,147)	(15,14)	(45,6)	(-4,1)	(2,4)	(16,4)	(-15,32)	(30,15)	(-16,3)	(-30,19)	(46,4)	(-21,2)	(-6,1)	(-48,10)	(-2,1)	(4,3)	
L2C -14>	(1,131)	(-16,1)	(-7,1)	(7,5)	(-31,8)	(24,1)	(3,10)	(9,1)	(-1,3)	(-2,1)	(5,1)	(2,10)	(6,2)	(30,1)	(15,3)	(8,2)	
L2C -13>	(7,33)	(1,126)	(20,12)	(-13,2)	(0,1)	(14,8)	(55,1)	(5,4)	(3,4)	(6,4)	(2,14)	(25,5)	(12,1)	(39,8)	(-20,1)	(28,1)	
L2C -12>	(1,108)	(4,13)	(9,4)	(2,61)	(0,6)	(10,2)	(13,12)	(7,6)	(6,5)	(-15,8)	(-4,6)	(-51,2)	(54,1)	(12,1)	(5,1)	(-50,1)	
L2C -11>	(4,17)	(1,101)	(12,8)	(-8,4)	(2,23)	(-7,2)	(-1,14)	(-52,4)	(3,2)	(7,15)	(10,2)	(41,5)	(6,5)	(8,12)	(14,5)	(11,1)	
L2C -10>	(5,4)	(-1,21)	(7,9)	(10,10)	(1,81)	(-2,3)	(2,17)	(-37,1)	(9,5)	(11,14)	(-7,7)	(21,2)	(-11,7)	(4,5)	(23,1)	(0,2)	
L2C -9>	(1,108)	(0,6)	(12,2)	(7,1)	(10,23)	(-7,11)	(-1,23)	(8,2)	(6,4)	(-19,1)	(-4,6)	(2,19)	(-2,2)	(41,9)	(25,1)	(9,2)	
L2C -8>	(1,207)	(-4,1)	(-7,3)	(-6,1)	(9,25)	(25,1)	(3,4)	(-1,18)	(39,1)	(2,23)	(10,3)	(-2,8)	(4,1)	(14,2)	(8,3)	(0,19)	
L2C -7>	(8,80)	(1,176)	(0,5)	(6,15)	(-1,6)	(9,11)	(7,6)	(11,2)	(25,2)	(2,40)	(-3,1)	(5,9)	(-7,2)	(30,1)	(33,1)	(20,1)	
L2C -6>	(7,169)	(5,1)	(6,4)	(10,1)	(1,90)	(0,6)	(2,9)	(13,1)	(-8,2)	(-11,2)	(-2,2)	(3,1)	(8,4)	(-40,2)	(-1,5)	(-3,2)	
L2C -5>	(32,3)	(6,24)	(3,4)	(1,202)	(-2,2)	(12,1)	(9,2)	(7,4)	(5,11)	(4,4)	(0,62)	(-1,10)	(2,25)	(-12,5)	(-7,1)	(8,1)	
L2C -4>	(-1,17)	(1,237)	(2,44)	(-3,4)	(-12,2)	(3,8)	(0,32)	(8,4)	(15,1)	(5,40)	(6,19)	(-31,1)	(-59,1)	(12,2)	(4,41)	(-7,5)	
L2C -3>	(1,162)	(2,47)	(-1,31)	(4,16)	(-5,6)	(3,6)	(0,16)	(-7,6)	(-36,1)	(-4,4)	(-2,8)	(21,4)	(-42,3)	(-3,9)	(-9,4)	(-6,2)	
L2C -2>	(1,197)	(8,1)	(3,29)	(4,7)	(5,1)	(7,3)	(6,11)	(-3,3)	(-1,16)	(0,18)	(9,2)	(-6,1)	(-7,4)	(2,62)	(-15,1)	(-22,2)	
L2C -1>	(-5,8)	(2,211)	(4,10)	(-2,8)	(-1,241)	(1,173)	(14,13)	(-4,21)	(-3,11)	(3,15)	(20,4)	(-8,1)	(11,6)	(6,15)	(0,27)	(-40,1)	
L2C 0>	(0,210)	(-38,1)	(-8,2)	(1,32)	(-32,2)	(-3,2)	(2,7)	(-33,1)	(-16,11)	(16,3)	(-2,6)	(-1,3)	(-7,4)	(-24,1)	(-10,2)	(10,2)	
L2C 1>	(-63,2)	(15,0)	(-31,0)	(1,226)	(-43,0)	(-55,1)	(-19,0)	(3,0)	(-1,0)	(-7,0)	(-11,0)	(2,1)	(-52,0)	(11,0)	(48,1)	(8,0)	
L2C 2>	(1,143)	(-1,13)	(-3,1)	(-4,1)	(2,9)	(-14,1)	(6,1)	(-8,1)	(11,1)	(7,1)	(-18,1)	(-2,2)	(-45,0)	(3,2)	(4,0)	(-7,1)	
L2C 3>	(1,178)	(-2,5)	(2,11)	(4,2)	(7,1)	(3,6)	(-50,1)	(-30,1)	(5,2)	(6,0)	(-5,2)	(-6,1)	(-13,0)	(-54,0)	(-11,1)	(-3,0)	
L2C 4>	(1,179)	(-1,2)	(2,15)	(-3,9)	(4,4)	(-47,1)	(6,3)	(3,6)	(-2,5)	(-6,1)	(0,2)	(5,1)	(-56,1)	(-4,6)	(8,1)	(55,1)	
L2C 5>	(4,2)	(1,201)	(-2,2)	(-4,7)	(-3,15)	(8,3)	(2,12)	(3,11)	(5,1)	(-7,1)	(6,3)	(7,1)	(0,3)	(-6,3)	(10,2)	(-1,10)	
L2C 6>	(7,21)	(1,246)	(16,3)	(-3,27)	(-1,3)	(-5,6)	(6,2)	(2,18)	(8,9)	(15,2)	(55,1)	(-2,1)	(-19,3)	(3,13)	(-6,7)	(14,2)	
L2C 7>	(-20,9)	(7,38)	(1,151)	(6,17)	(-40,3)	(-6,148)	(-47,4)	(-13,8)	(-37,1)	(-19,1)	(-5,2)	(-3,1)	(8,4)	(2,3)	(4,2)	(3,3)	
L2C 8>	(1,200)	(2,5)	(3,13)	(4,4)	(-2,1)	(-7,45)	(-3,3)	(8,49)	(-14,3)	(-22,3)	(-1,6)	(-9,6)	(7,4)	(-55,3)	(-16,9)	(23,2)	
L2C 9>	(-7,2)	(15,4)	(1,217)	(8,7)	(-1,15)	(-6,2)	(-21,2)	(52,1)	(-12,10)	(9,11)	(39,9)	(7,5)	(2,10)	(3,5)	(-16,2)	(11,3)	
L2C 10>	(11,18)	(1,186)	(2,2)	(-6,4)	(-29,2)	(0,1)	(-3,2)	(8,1)	(-12,9)	(-1,3)	(7,5)	(-11,8)	(-4,2)	(3,3)	(-54,8)	(-8,2)	
L2C 11>	(1,115)	(16,3)	(-15,13)	(4,2)	(2,14)	(-1,10)	(-59,8)	(-8,3)	(0,17)	(-12,4)	(-33,1)	(-10,11)	(-2,2)	(-16,1)	(-21,2)	(-3,3)	
L2C 12>	(-30,5)	(1,58)	(15,1)	(-13,9)	(0,1)	(-10,1)	(-9,2)	(-11,11)	(-20,1)	(3,3)	(-8,6)	(5,1)	(2,3)	(14,1)	(-7,1)	(18,1)	
L2C 13>	(1,66)	(7,15)	(-7,2)	(3,2)	(-16,2)	(-30,1)	(14,2)	(-11,1)	(-15,2)	(-6,13)	(-12,5)	(17,1)	(-50,4)	(-31,2)	(-8,5)	(5,1)	
L2C 14>	(7,6)	(-6,2)	(16,2)	(1,62)	(-7,3)	(-5,2)	(-13,16)	(3,4)	(2,10)	(6,3)	(-22,1)	(-40,1)	(13,3)	(-1,8)	(-15,16)	(-30,2)	
L2C 15>	(1,89)	(16,7)	(-15,11)	(-31,4)	(-14,10)	(15,8)	(-39,2)	(24,2)	(0,3)	(8,3)	(30,8)	(-7,3)	(-30,41)	(31,5)	(-45,1)	(-1,2)	
L2C 16>	(1,62)	(-16,60)	(0,46)	(-33,6)	(-8,2)	(-47,3)	(-32,5)	(-30,2)	(-54,1)	(-14,3)	(-15,29)	(17,4)	(-1,6)	(-48,14)	(16,22)	(-49,4)	
L2C 17>	(16,10)	(1,33)	(4,1)	(-32,5)	(-36,9)	(-1,2)	(3,1)	(-9,8)	(0,8)	(12,1)	(6,1)	(34,5)	(2,5)	(7,1)	(5,1)	(-4,1)	
L2C 18>	(-26,1)	(15,3)	(1,12)	(-16,1)	(-17,4)	(-1,2)	(-52,1)	(2,3)	(16,1)	(-6,1)	(-54,1)	(3,1)	(-13,1)	(14,1)	(-30,1)	(7,1)	
L2C 19>	(1,36)	(3,10)	(-18,1)	(-60,1)	(-20,1)	(0,4)	(6,2)	(-34,1)	(-23,4)	(-24,8)	(-36,1)	(25,1)	(5,1)	(-7,1)	(-13,1)	(-27,1)	
L2C 20>	(-13,4)	(-4,1)	(-6,2)	(7,12)	(1,68)	(2,4)	(-27,1)	(-26,3)	(10,3)	(-10,2)	(-61,1)	(-1,1)	(-53,1)	(-33,2)	(-12,1)	(13,1)	
L2C 21>	(-20,3)	(-7,5)	(-18,8)	(3,1)	(1,76)	(-2,1)	(-1,2)	(-23,1)	(-33,1)	(8,4)	(-28,1)	(-52,1)	(-6,1)	(-54,1)	(2,3)	(7,1)	
L2C 22>	(1,30)	(-19,8)	(-16,1)	(-28,2)	(-21,2)	(-22,1)	(9,1)	(0,8)	(2,5)	(-4,1)	(-1,3)	(-20,1)	(-54,2)	(-7,1)	(6,1)	(3,1)	
L2C 23>	(1,53)	(-24,2)	(12,1)	(-1,5)	(-4,2)	(9,2)	(4,1)	(-15,1)	(-22,4)	(2,4)	(-26,1)	(-21,1)	(-31,1)	(8,1)	(30,1)	(-3,1)	
L2C 24>	(1,28)	(5,1)	(6,2)	(-26,1)	(-46,3)	(-7,4)	(-16,1)	(-1,4)	(-53,1)	(2,3)	(-31,1)	(24,1)	(-37,1)	(-45,1)	(25,1)	(-43,1)	
L2C 25>	(-32,2)	(1,35)	(-54,2)	(9,1)	(24,1)	(-23,1)	(-7,15)	(12,1)	(-25,1)	(-26,4)	(11,3)	(-1,2)	(-24,1)	(30,1)	(-30,1)	(2,3)	
L2C 26>	(1,29)	(-7,9)	(-28,1)	(-1,7)	(2,5)	(8,3)	(-3,5)	(4,1)	(-29,1)	(6,2)	(-16,5)	(-8,1)	(-42,1)	(-10,1)	(3,2)	(-48,1)	
L2C 27>	(-20,100)	(-47,12)	(-40,4)	(14,1)	(-26,11)	(-13,3)	(-7,4)	(2,4)	(1,18)	(7,25)	(-33,3)	(-6,1)	(-1,4)	(-52,1)	(30,2)	(-22,1)	
L2C 28>	(7,3)	(6,1)	(3,1)	(-7,2)	(1,20)	(-16,1)	(0,2)	(-30,2)	(-28,1)	(-31,1)	(2,1)	(15,2)	(-15,1)	(-54,1)	(-10,1)	(1,0)	
L2C 29>	(-16,2)	(-1,1)	(1,11)	(-15,5)	(-28,1)	(-5,1)	(-55,1)	(-20,1)	(0,1)	(8,1)	(-11,1)	(-44,1)	(-30,1)	(-50,1)	(-8,1)	(7,1)	
L2C 30>	(16,3)	(-29,1)	(-41,9)	(15,5)	(-15,36)	(2,1)	(-48,1)	(-20,8)	(1,15)	(-18,1)	(31,1)	(-60,2)	(-54,1)	(-52,1)	(0,2)	(-32,1)	
L2C 31>	(1,17)	(-61,1)	(-39,1)	(3,1)	(-31,4)	(-15,13)	(15,2)	(-16,2)	(-28,1)	(-30,4)	(-60,1)	(-23,1)	(8,2)	(-46,2)	(-24,1)	(2,2)	
L2C 32>	(-31,3)	(16,6)	(1,13)	(-5,2)	(3,4)	(-1,3)	(-2,4)	(-17,1)	(-23,5)	(-7,1)	(4,1)	(-40,3)	(0,3)	(-22,1)	(-6,1)	(1,0)	
L2C 33>	(16,2)	(-7,2)	(1,7)	(-12,7)	(-32,1)	(-41,6)	(7,1)	(-18,1)	(0,2)	(8,1)	(14,1)	(2,1)	(3,1)	(-25,1)	(-50,1)	(-59,1)	
L2C 34>	(-31,9)	(3,1)	(-3,4)	(2,2)	(-30,1)	(7,6)	(-40,3)	(1,4)	(-16,1)	(-24,1)	(-20,1)	(-12,1)	(-26,1)	(-41,1)	(6,1)	(1,0)	
L2C 35>	(-1,1)	(1,12)	(-32,1)	(-28,3)	(27,1)	(-18,4)	(7,1)	(4,1)	(-10,1)	(-9,1)	(-16,1)	(-48,1)	(-40,1)	(-41,1)	(1,0)	(1,0)	
L2C 36>	(-37,5)	(1,6)	(2,1)	(-56,2)	(-35,1)	(-41,2)	(-40,2)	(-1,1)	(-39,1)	(-54,1)	(1,0)	(1,0)	(1,0)	(1,0)	(1,0)	(1,0)	
L2C 37>	(1,12)	(6,1)	(2,2)	(-40,2)	(-41,1)	(3,1)	(-30,1)	(15,1)	(1,0)	(1,0)	(1,0)	(1,0)	(1,0)	(1,0)	(1,0)	(1,0)	
L2C 38>	(-5,1)	(1,5)	(-28,1)	(-40,1)	(-6,1)	(-41,1)	(-54,1)	(-32,1)	(-31,1)	(-30,1)	(2,1)	(1,0)	(1,0)	(1,0)	(1,0)	(1,0)	
L2C 39>	(-40,1)	(1,11)	(8,9)	(-8,1)	(-47,1)	(1,0)	(1,0)	(1,0)	(1,0)	(1,0)	(1,0)	(1,0)	(1,0)	(1,0)	(1,0)	(1,0)	
L2C 40>	(1,4)	(-40,16)	(0,9)	(-41,9)	(-15,5)	(-53,1)	(8,6)	(-63,1)	(-27,1)	(5,1)	(1,0)	(1,0)	(1,0)	(1,0)	(1,0)	(1,0)	
L2C 41>	(-40,24)	(1,14)	(-16,1)	(-1,5)	(-41,27)	(-58,1)	(0,4)	(-39,2)	(-30,1)	(-47,4)	(-53,2)	(-14,2)	(-46,1)	(-23,1)	(-15,2)	(-34,1)	
L2C 42>	(-30,3)	(1,3)	(-28,1)	(-6,2)	(-2,1)	(1,0)	(1,0)	(1,0)	(1,0)	(1,0)	(1,0)	(1,0)	(1,0)	(1,0)	(1,0)	(1,0)	
L2C 43>	(-1,2)	(-16,1)	(-31,1)	(-38,1)	(-33,1)	(-15,1)	(1,3)	(-39,1)	(1,0)	(1,0)	(1,0)	(1,0)	(1,0)	(1,0)	(1,0)	(1,0)	
L2C 44>	(1,1)	(-30,2)	(-16,1)	(-15,1)	(1,0)	(1,0)	(1,0)	(1,0)	(1,0)	(1,0)	(1,0)	(1,0)	(1,0)	(1,0)	(1,0)	(1,0)	
L2C 45>	(1,4)	(-30,14)	(-15,3)	(-44,2)	(-13,1)	(-14,1)	(-53,2)	(-47,1)	(-16,1)	(-61,1)	(-60,1)	(1,0)	(1,0)	(1,0)	(1,0)	(1,0)	
L2C 46>	(-16,3)	(-45,1)	(2,1)	(-30,7)	(1,6)	(-31,4)	(-15,7)	(-60,1)	(-24,1)	(1,0)	(1,0)	(1,0)	(1,0)	(1,0)	(1,0)	(1,0)	
L2C 47>	(-16,1)	(1,14)	(8,1)	(-44,1)	(0,10)	(-32,1)	(-46,5)	(-47,1)	(-52,4)	(-50,1)	(-53,2)	(-13,1)	(-55,1)	(7,1)	(1,0)	(1,0)	
L2C 48>	(-47,143)	(-52,1)	(-45,1)	(1,25)	(-16,3)	(4,1)	(-54,1)	(0,2)	(-53,1)	(6,1)	(1,0)	(1,0)	(1,0)	(1,0)	(1,0)	(1,0)	
L2C 49>	(-54,4)	(1,14)	(-47,1)	(-16,3)	(-48,7)	(2,1)	(-26,1)	(-49,1)	(0,3)	(-55,1)	(1,0)	(1,0)	(1,0)	(1,0)	(1,0)	(1,0)	
L2C 50>	(0,3)	(1,11)	(-47,1)	(-49,9)	(-43,1)	(-48,1)	(1,0)	(1,0)	(1,0)	(1,0)	(1,0)	(1,0)	(1,0)	(1,0)	(1,0)	(1,0)	
L2C 51>	(-49,2)	(1,22)	(-50,10)	(-7,1)	(-3,1)	(-1,1)	(-47,1)	(1,0)	(1,0)	(1,0)	(1,0)	(1,0)	(1,0)	(1,0)	(1,0)	(1,0)	
L2C 52>	(-51,24)	(1,27)	(-1,1)	(-47,1)	(1,0)	(1,0)	(1,0)	(1,0)	(1,0)	(1,0)	(1,0)	(1,0)	(1,0)	(1,0)	(1,0)	(1,0)	
L2C 53>	(-52,16)	(1,33)	(-5,1)	(-58,1)	(-51,2)	(-54,1)	(-48,1)	(-3,2)	(-53,4)	(1,0)	(1,0)	(1,0)	(1,0)	(1,0)	(1,0)	(1,0)	
L2C 54>	(1,24)	(-53,168)	(4,0)	(-6,0)	(2,0)	(-51,1)	(-52,1)	(-50,1)	(-48,0)	(-39,1)	(-47,0)	(3,0)	(1,0)	(1,0)	(1,0)	(1,0)	
L2C 55>	(-54,135)	(1,34)	(-52,1)	(-53,8)	(-51,0)	(-10,0)	(3,1)	(-63,1)	(-50,1)	(-30,1)	(-7,0)	(-37,0)	(1,0)	(1,0)	(1,0)	(1,0)	
L2C 56>	(-54,8)	(1,31)	(-55,17)	(-53,3)	(-43,1)	(-28,1)	(-40,1)	(-46,1)	(-16,1)	(1,0)	(1,0)	(1,0)	(1,0)	(1,0)	(1,0)	(1,0)	
L2C 57>	(-2,1)	(1,19)	(-55,1)	(-56,5)	(-40,1)	(-49,3)	(-54,2)	(3,1)	(-46,2)	(1,0)	(1,0)	(1,0)	(1,0)	(1,0)	(1,0)	(1,0)	
L2C 58>	(1,19)	(-57,3)	(-53,1)	(-56,2)	(-52,1)	(1,0)	(1,0)	(1,0)	(1,0)	(1,0)	(1,0)	(1,0)	(1,0)	(1,0)	(1,0)	(1,0)	
L2C 59>	(1,20)	(-55,1)	(-58,2)	(-63,1)	(-57,2)	(-61,1)	(-15,1)	(1,0)	(1,0)	(1,0)	(1,0)	(1,0)	(1,0)	(1,0)	(1,0)	(1,0)	
L2C 60>	(1,4)	(-60,3)	(-31,1)	(-59,3)	(-3,1)	(-15,1)	(-22,1)	(-53,1)	(-16,1)	(1,0)	(1,0)	(1,0)	(1,0)	(1,0)	(1,0)	(1,0)	
L2C 61>	(-60,24)	(-7,1)	(1,5)	(-58,2)	(-54,2)	(-61,2)	(-59,2)	(1,0)	(1,0)	(1,0)	(1,0)	(1,0)	(1,0)	(1,0)	(1,0)	(1,0)	
L2C 62>	(1,1)	(-61,7)	(-55,1)	(1,0)	(1,0)	(1,0)	(1,0)	(1,0)	(1,0)	(1,0)	(1,0)	(1,0)	(1,0)	(1,0)	(1,0)	(1,0)	
L2C 63>	(-62,1)	(-57,1)	(1,0)	(1,0)	(1,0)	(1,0)	(1,0)	(1,0)	(1,0)	(1,0)	(1,0)	(1,0)	(1,0)	(1,0)	(1,0)	(1,0)	

DRAM Statistics
 CHANNEL 0
 RQ ROW_BUFFER_HIT:      21715  ROW_BUFFER_MISS:      13178
 DBUS_CONGESTED:      24873
 WQ ROW_BUFFER_HIT:       1103  ROW_BUFFER_MISS:       3769  FULL:          0

 AVG_CONGESTED_CYCLE: 6
