
*** ChampSim Multicore Out-of-Order Simulator ***

Warmup Instructions: 1000000
Simulation Instructions: 10000000
Number of CPUs: 1
LLC sets: 2048
LLC ways: 16
Off-chip DRAM Size: 4096 MB Channels: 1 Width: 64-bit Data Rate: 3200 MT/s

CPU 0 runs /home/virtualcse/Data-Prefetching/ChampSim/dpc3_traces/644.nab_s-5853B.champsimtrace.xz
Ultra pref. initializing...
Ultra pref. initialized
Ultra pref. initializing...
Ultra pref. initialized

Warmup complete CPU 0 instructions: 1000003 cycles: 385981 (Simulation time: 0 hr 0 min 2 sec) 

Heartbeat CPU 0 instructions: 10000001 cycles: 5200536 heartbeat IPC: 1.92288 cumulative IPC: 1.86933 (Simulation time: 0 hr 0 min 18 sec) 
Finished CPU 0 instructions: 10000000 cycles: 5359539 cumulative IPC: 1.86583 (Simulation time: 0 hr 0 min 20 sec) 

CPU 0 Branch Prediction Accuracy: 99.9322% MPKI: 0.0507 Average ROB Occupancy at Mispredict: 82.0197

ChampSim completed all CPUs

Region of Interest Statistics

CPU 0 cumulative IPC: 1.86583 instructions: 10000000 cycles: 5359539
L1D TOTAL     ACCESS:    4635871  HIT:    4585268  MISS:      50603
L1D LOAD      ACCESS:    1874107  HIT:    1867358  MISS:       6749
L1D RFO       ACCESS:    1074524  HIT:    1074454  MISS:         70
L1D PREFETCH  ACCESS:    1687240  HIT:    1643456  MISS:      43784
L1D WRITEBACK ACCESS:          0  HIT:          0  MISS:          0
L1D PREFETCH  REQUESTED:   13155089  ISSUED:   10199275  USEFUL:      41118  USELESS:       7529
L1D AVERAGE MISS LATENCY: 17.8869 cycles
L1I TOTAL     ACCESS:    1131822  HIT:    1131722  MISS:        100
L1I LOAD      ACCESS:    1131822  HIT:    1131722  MISS:        100
L1I RFO       ACCESS:          0  HIT:          0  MISS:          0
L1I PREFETCH  ACCESS:          0  HIT:          0  MISS:          0
L1I WRITEBACK ACCESS:          0  HIT:          0  MISS:          0
L1I PREFETCH  REQUESTED:          0  ISSUED:          0  USEFUL:          0  USELESS:          0
L1I AVERAGE MISS LATENCY: 47.95 cycles
L2C TOTAL     ACCESS:     438246  HIT:     435327  MISS:       2919
L2C LOAD      ACCESS:       6801  HIT:       6705  MISS:         96
L2C RFO       ACCESS:         69  HIT:         50  MISS:         19
L2C PREFETCH  ACCESS:     416296  HIT:     413492  MISS:       2804
L2C WRITEBACK ACCESS:      15080  HIT:      15080  MISS:          0
L2C PREFETCH  REQUESTED:     926634  ISSUED:     592247  USEFUL:        905  USELESS:         25
L2C AVERAGE MISS LATENCY: 153.666 cycles
LLC TOTAL     ACCESS:       2919  HIT:          9  MISS:       2910
LLC LOAD      ACCESS:         92  HIT:          0  MISS:         92
LLC RFO       ACCESS:         18  HIT:          0  MISS:         18
LLC PREFETCH  ACCESS:       2809  HIT:          9  MISS:       2800
LLC WRITEBACK ACCESS:          0  HIT:          0  MISS:          0
LLC PREFETCH  REQUESTED:          0  ISSUED:          0  USEFUL:          0  USELESS:          0
LLC AVERAGE MISS LATENCY: 123.021 cycles
Major fault: 0 Minor fault: 148

L1D -512>	(1,49)	(4,1)	(40,1)	(-20,2)	(2,8)	(-2,2)	(-106,1)	(137,1)	(0,60)	(-109,1)	(32,1)	(10,1)	(-1,2)	(3,1)	(28,3)	(14,1)	
L1D -511>	(2,71)	(1,112)	(0,4)	(1,0)	(1,0)	(1,0)	(1,0)	(1,0)	(1,0)	(1,0)	(1,0)	(1,0)	(1,0)	(1,0)	(1,0)	(1,0)	
L1D -510>	(1,16)	(2,19)	(3,11)	(6,1)	(-1,2)	(4,1)	(1,0)	(1,0)	(1,0)	(1,0)	(1,0)	(1,0)	(1,0)	(1,0)	(1,0)	(1,0)	
L1D -509>	(1,16)	(-1,30)	(2,16)	(3,25)	(0,1)	(6,1)	(1,0)	(1,0)	(1,0)	(1,0)	(1,0)	(1,0)	(1,0)	(1,0)	(1,0)	(1,0)	
L1D -508>	(30,1)	(1,7)	(2,1)	(1,0)	(1,0)	(1,0)	(1,0)	(1,0)	(1,0)	(1,0)	(1,0)	(1,0)	(1,0)	(1,0)	(1,0)	(1,0)	
L1D -507>	(1,7)	(2,1)	(4,1)	(1,0)	(1,0)	(1,0)	(1,0)	(1,0)	(1,0)	(1,0)	(1,0)	(1,0)	(1,0)	(1,0)	(1,0)	(1,0)	
L1D -506>	(-1,3)	(9,3)	(12,1)	(3,1)	(2,4)	(1,3)	(325,1)	(1,0)	(1,0)	(1,0)	(1,0)	(1,0)	(1,0)	(1,0)	(1,0)	(1,0)	
L1D -505>	(1,0)	(1,0)	(1,0)	(1,0)	(1,0)	(1,0)	(1,0)	(1,0)	(1,0)	(1,0)	(1,0)	(1,0)	(1,0)	(1,0)	(1,0)	(1,0)	
L1D -504>	(1,14)	(3,1)	(274,1)	(282,1)	(1,0)	(1,0)	(1,0)	(1,0)	(1,0)	(1,0)	(1,0)	(1,0)	(1,0)	(1,0)	(1,0)	(1,0)	
L1D -503>	(-1,1)	(2,1)	(3,2)	(1,1)	(1,0)	(1,0)	(1,0)	(1,0)	(1,0)	(1,0)	(1,0)	(1,0)	(1,0)	(1,0)	(1,0)	(1,0)	
L1D -502>	(22,1)	(2,1)	(1,0)	(1,0)	(1,0)	(1,0)	(1,0)	(1,0)	(1,0)	(1,0)	(1,0)	(1,0)	(1,0)	(1,0)	(1,0)	(1,0)	
L1D -501>	(-1,2)	(2,1)	(244,1)	(166,1)	(451,1)	(1,0)	(1,0)	(1,0)	(1,0)	(1,0)	(1,0)	(1,0)	(1,0)	(1,0)	(1,0)	(1,0)	
L1D -500>	(2,1)	(431,1)	(1,0)	(1,0)	(1,0)	(1,0)	(1,0)	(1,0)	(1,0)	(1,0)	(1,0)	(1,0)	(1,0)	(1,0)	(1,0)	(1,0)	
L1D -499>	(-1,1)	(333,1)	(1,0)	(1,0)	(1,0)	(1,0)	(1,0)	(1,0)	(1,0)	(1,0)	(1,0)	(1,0)	(1,0)	(1,0)	(1,0)	(1,0)	
L1D -498>	(14,1)	(2,1)	(214,1)	(1,0)	(1,0)	(1,0)	(1,0)	(1,0)	(1,0)	(1,0)	(1,0)	(1,0)	(1,0)	(1,0)	(1,0)	(1,0)	
L1D -497>	(17,1)	(19,3)	(130,1)	(1,0)	(1,0)	(1,0)	(1,0)	(1,0)	(1,0)	(1,0)	(1,0)	(1,0)	(1,0)	(1,0)	(1,0)	(1,0)	
L1D -496>	(425,1)	(-8,1)	(322,1)	(1,0)	(1,0)	(1,0)	(1,0)	(1,0)	(1,0)	(1,0)	(1,0)	(1,0)	(1,0)	(1,0)	(1,0)	(1,0)	
L1D -495>	(1,1)	(507,1)	(465,1)	(1,0)	(1,0)	(1,0)	(1,0)	(1,0)	(1,0)	(1,0)	(1,0)	(1,0)	(1,0)	(1,0)	(1,0)	(1,0)	
L1D -494>	(44,1)	(184,1)	(308,1)	(437,1)	(3,2)	(288,1)	(1,0)	(1,0)	(1,0)	(1,0)	(1,0)	(1,0)	(1,0)	(1,0)	(1,0)	(1,0)	
L1D -493>	(309,1)	(54,1)	(1,0)	(1,0)	(1,0)	(1,0)	(1,0)	(1,0)	(1,0)	(1,0)	(1,0)	(1,0)	(1,0)	(1,0)	(1,0)	(1,0)	
L1D -492>	(1,1)	(301,1)	(124,1)	(1,0)	(1,0)	(1,0)	(1,0)	(1,0)	(1,0)	(1,0)	(1,0)	(1,0)	(1,0)	(1,0)	(1,0)	(1,0)	
L1D -491>	(230,1)	(-1,2)	(427,1)	(1,2)	(1,0)	(1,0)	(1,0)	(1,0)	(1,0)	(1,0)	(1,0)	(1,0)	(1,0)	(1,0)	(1,0)	(1,0)	
L1D -490>	(427,1)	(84,1)	(6,1)	(1,1)	(266,1)	(1,0)	(1,0)	(1,0)	(1,0)	(1,0)	(1,0)	(1,0)	(1,0)	(1,0)	(1,0)	(1,0)	
L1D -489>	(1,1)	(2,2)	(473,1)	(1,0)	(1,0)	(1,0)	(1,0)	(1,0)	(1,0)	(1,0)	(1,0)	(1,0)	(1,0)	(1,0)	(1,0)	(1,0)	
L1D -488>	(1,1)	(358,1)	(296,1)	(163,1)	(112,1)	(1,0)	(1,0)	(1,0)	(1,0)	(1,0)	(1,0)	(1,0)	(1,0)	(1,0)	(1,0)	(1,0)	
L1D -487>	(-1,2)	(317,1)	(1,0)	(1,0)	(1,0)	(1,0)	(1,0)	(1,0)	(1,0)	(1,0)	(1,0)	(1,0)	(1,0)	(1,0)	(1,0)	(1,0)	
L1D -486>	(1,1)	(2,3)	(133,1)	(1,0)	(1,0)	(1,0)	(1,0)	(1,0)	(1,0)	(1,0)	(1,0)	(1,0)	(1,0)	(1,0)	(1,0)	(1,0)	
L1D -485>	(435,1)	(461,1)	(1,0)	(1,0)	(1,0)	(1,0)	(1,0)	(1,0)	(1,0)	(1,0)	(1,0)	(1,0)	(1,0)	(1,0)	(1,0)	(1,0)	
L1D -484>	(314,1)	(1,0)	(1,0)	(1,0)	(1,0)	(1,0)	(1,0)	(1,0)	(1,0)	(1,0)	(1,0)	(1,0)	(1,0)	(1,0)	(1,0)	(1,0)	
L1D -483>	(94,1)	(126,1)	(-1,1)	(1,0)	(1,0)	(1,0)	(1,0)	(1,0)	(1,0)	(1,0)	(1,0)	(1,0)	(1,0)	(1,0)	(1,0)	(1,0)	
L1D -482>	(271,1)	(389,1)	(133,1)	(483,1)	(465,1)	(68,1)	(1,0)	(1,0)	(1,0)	(1,0)	(1,0)	(1,0)	(1,0)	(1,0)	(1,0)	(1,0)	
L1D -481>	(1,1)	(204,1)	(325,1)	(447,1)	(299,1)	(1,0)	(1,0)	(1,0)	(1,0)	(1,0)	(1,0)	(1,0)	(1,0)	(1,0)	(1,0)	(1,0)	
L1D -480>	(481,1)	(207,1)	(2,1)	(146,1)	(1,2)	(345,1)	(497,1)	(148,1)	(1,0)	(1,0)	(1,0)	(1,0)	(1,0)	(1,0)	(1,0)	(1,0)	
L1D -479>	(-1,2)	(106,1)	(3,2)	(14,1)	(1,0)	(1,0)	(1,0)	(1,0)	(1,0)	(1,0)	(1,0)	(1,0)	(1,0)	(1,0)	(1,0)	(1,0)	
L1D -478>	(479,3)	(1,12)	(14,1)	(285,1)	(327,1)	(124,1)	(92,1)	(1,0)	(1,0)	(1,0)	(1,0)	(1,0)	(1,0)	(1,0)	(1,0)	(1,0)	
L1D -477>	(139,1)	(479,1)	(1,3)	(-1,1)	(1,0)	(1,0)	(1,0)	(1,0)	(1,0)	(1,0)	(1,0)	(1,0)	(1,0)	(1,0)	(1,0)	(1,0)	
L1D -476>	(-1,2)	(474,1)	(54,1)	(1,1)	(3,1)	(295,1)	(329,1)	(168,1)	(2,1)	(1,0)	(1,0)	(1,0)	(1,0)	(1,0)	(1,0)	(1,0)	
L1D -475>	(1,3)	(271,1)	(-1,1)	(172,1)	(344,1)	(116,1)	(1,0)	(1,0)	(1,0)	(1,0)	(1,0)	(1,0)	(1,0)	(1,0)	(1,0)	(1,0)	
L1D -474>	(303,1)	(431,1)	(433,1)	(194,1)	(175,1)	(1,0)	(1,0)	(1,0)	(1,0)	(1,0)	(1,0)	(1,0)	(1,0)	(1,0)	(1,0)	(1,0)	
L1D -473>	(220,1)	(-1,3)	(1,0)	(1,0)	(1,0)	(1,0)	(1,0)	(1,0)	(1,0)	(1,0)	(1,0)	(1,0)	(1,0)	(1,0)	(1,0)	(1,0)	
L1D -472>	(287,1)	(409,1)	(1,3)	(463,1)	(310,1)	(279,1)	(328,1)	(256,1)	(436,1)	(370,1)	(404,1)	(1,0)	(1,0)	(1,0)	(1,0)	(1,0)	
L1D -471>	(50,1)	(-1,2)	(6,1)	(255,1)	(1,0)	(1,0)	(1,0)	(1,0)	(1,0)	(1,0)	(1,0)	(1,0)	(1,0)	(1,0)	(1,0)	(1,0)	
L1D -470>	(-1,1)	(-19,1)	(1,4)	(451,1)	(166,2)	(323,1)	(351,1)	(240,1)	(253,1)	(88,1)	(442,1)	(6,1)	(8,1)	(473,1)	(108,1)	(1,0)	
L1D -469>	(455,1)	(275,1)	(407,1)	(132,1)	(-1,1)	(1,0)	(1,0)	(1,0)	(1,0)	(1,0)	(1,0)	(1,0)	(1,0)	(1,0)	(1,0)	(1,0)	
L1D -468>	(469,1)	(360,1)	(-1,2)	(366,1)	(289,1)	(336,1)	(89,1)	(1,3)	(1,0)	(1,0)	(1,0)	(1,0)	(1,0)	(1,0)	(1,0)	(1,0)	
L1D -467>	(38,1)	(-1,3)	(383,1)	(-36,1)	(421,1)	(1,5)	(1,0)	(1,0)	(1,0)	(1,0)	(1,0)	(1,0)	(1,0)	(1,0)	(1,0)	(1,0)	
L1D -466>	(-1,1)	(307,1)	(63,1)	(12,1)	(18,1)	(188,1)	(96,1)	(19,1)	(323,1)	(48,1)	(343,1)	(1,0)	(1,0)	(1,0)	(1,0)	(1,0)	
L1D -465>	(52,1)	(331,1)	(-1,2)	(386,1)	(214,1)	(1,0)	(1,0)	(1,0)	(1,0)	(1,0)	(1,0)	(1,0)	(1,0)	(1,0)	(1,0)	(1,0)	
L1D -464>	(324,1)	(456,1)	(66,2)	(1,1)	(164,1)	(67,1)	(452,2)	(262,1)	(113,1)	(1,0)	(1,0)	(1,0)	(1,0)	(1,0)	(1,0)	(1,0)	
L1D -463>	(1,2)	(-1,2)	(2,1)	(389,1)	(439,1)	(1,0)	(1,0)	(1,0)	(1,0)	(1,0)	(1,0)	(1,0)	(1,0)	(1,0)	(1,0)	(1,0)	
L1D -462>	(14,1)	(4,1)	(258,1)	(-1,1)	(271,1)	(398,1)	(348,1)	(220,1)	(1,0)	(1,0)	(1,0)	(1,0)	(1,0)	(1,0)	(1,0)	(1,0)	
L1D -461>	(-1,3)	(52,1)	(116,1)	(1,1)	(336,1)	(477,1)	(-17,1)	(265,1)	(1,0)	(1,0)	(1,0)	(1,0)	(1,0)	(1,0)	(1,0)	(1,0)	
L1D -460>	(461,1)	(426,1)	(259,1)	(441,1)	(330,1)	(10,1)	(101,1)	(1,1)	(396,1)	(12,1)	(466,1)	(90,1)	(1,0)	(1,0)	(1,0)	(1,0)	
L1D -459>	(-6,1)	(331,1)	(-1,5)	(148,1)	(56,1)	(1,0)	(1,0)	(1,0)	(1,0)	(1,0)	(1,0)	(1,0)	(1,0)	(1,0)	(1,0)	(1,0)	
L1D -458>	(1,1)	(428,1)	(96,1)	(2,1)	(-1,1)	(253,1)	(399,1)	(118,1)	(7,1)	(238,1)	(1,0)	(1,0)	(1,0)	(1,0)	(1,0)	(1,0)	
L1D -457>	(-1,3)	(359,1)	(158,1)	(411,1)	(108,1)	(307,1)	(1,0)	(1,0)	(1,0)	(1,0)	(1,0)	(1,0)	(1,0)	(1,0)	(1,0)	(1,0)	
L1D -456>	(-1,2)	(104,1)	(362,1)	(-2,1)	(453,1)	(48,1)	(1,0)	(1,0)	(1,0)	(1,0)	(1,0)	(1,0)	(1,0)	(1,0)	(1,0)	(1,0)	
L1D -455>	(-1,6)	(1,2)	(130,1)	(296,1)	(277,1)	(433,1)	(253,1)	(267,1)	(315,1)	(95,1)	(1,0)	(1,0)	(1,0)	(1,0)	(1,0)	(1,0)	
L1D -454>	(-40,1)	(279,1)	(223,1)	(376,1)	(204,1)	(248,1)	(1,0)	(1,0)	(1,0)	(1,0)	(1,0)	(1,0)	(1,0)	(1,0)	(1,0)	(1,0)	
L1D -453>	(341,1)	(417,1)	(454,1)	(-1,5)	(391,1)	(423,1)	(355,1)	(1,0)	(1,0)	(1,0)	(1,0)	(1,0)	(1,0)	(1,0)	(1,0)	(1,0)	
L1D -452>	(453,1)	(-1,1)	(119,1)	(429,1)	(316,1)	(196,2)	(363,1)	(24,1)	(324,1)	(234,1)	(433,1)	(341,1)	(0,1)	(164,1)	(208,1)	(40,1)	
L1D -451>	(1,3)	(-1,5)	(402,1)	(39,1)	(313,1)	(1,0)	(1,0)	(1,0)	(1,0)	(1,0)	(1,0)	(1,0)	(1,0)	(1,0)	(1,0)	(1,0)	
L1D -450>	(412,1)	(5,1)	(-1,1)	(196,1)	(274,1)	(1,2)	(238,1)	(56,1)	(356,1)	(336,1)	(363,1)	(280,1)	(334,1)	(377,1)	(205,1)	(360,1)	
L1D -449>	(378,1)	(-1,5)	(2,3)	(258,1)	(-18,1)	(389,1)	(312,1)	(481,1)	(1,0)	(1,0)	(1,0)	(1,0)	(1,0)	(1,0)	(1,0)	(1,0)	
L1D -448>	(1,2)	(62,1)	(267,1)	(-34,1)	(426,1)	(374,1)	(236,1)	(181,1)	(-1,2)	(93,1)	(411,1)	(146,1)	(208,1)	(99,1)	(-37,1)	(1,0)	
L1D -447>	(1,1)	(-1,2)	(396,1)	(295,1)	(425,1)	(411,1)	(212,1)	(1,0)	(1,0)	(1,0)	(1,0)	(1,0)	(1,0)	(1,0)	(1,0)	(1,0)	
L1D -446>	(219,1)	(1,3)	(223,1)	(224,1)	(247,1)	(-1,2)	(380,1)	(160,1)	(292,1)	(62,1)	(1,0)	(1,0)	(1,0)	(1,0)	(1,0)	(1,0)	
L1D -445>	(485,1)	(-1,6)	(200,1)	(151,1)	(1,0)	(1,0)	(1,0)	(1,0)	(1,0)	(1,0)	(1,0)	(1,0)	(1,0)	(1,0)	(1,0)	(1,0)	
L1D -444>	(1,2)	(360,1)	(196,1)	(-1,1)	(162,1)	(305,1)	(10,1)	(96,1)	(426,1)	(451,1)	(70,1)	(0,1)	(-6,1)	(1,0)	(1,0)	(1,0)	
L1D -443>	(-1,4)	(457,1)	(2,1)	(1,0)	(1,0)	(1,0)	(1,0)	(1,0)	(1,0)	(1,0)	(1,0)	(1,0)	(1,0)	(1,0)	(1,0)	(1,0)	
L1D -442>	(1,1)	(-1,3)	(2,2)	(432,1)	(242,1)	(381,1)	(202,1)	(240,1)	(210,1)	(153,1)	(293,1)	(382,1)	(405,1)	(126,1)	(256,1)	(142,1)	
L1D -441>	(1,4)	(-1,7)	(373,1)	(200,1)	(422,1)	(352,1)	(190,1)	(249,1)	(1,0)	(1,0)	(1,0)	(1,0)	(1,0)	(1,0)	(1,0)	(1,0)	
L1D -440>	(1,12)	(-1,2)	(324,2)	(92,1)	(44,1)	(2,1)	(-8,1)	(441,1)	(425,1)	(212,1)	(224,1)	(463,1)	(276,1)	(184,1)	(414,1)	(442,1)	
L1D -439>	(-1,3)	(432,1)	(276,1)	(365,1)	(461,1)	(429,1)	(-55,1)	(24,1)	(234,1)	(1,0)	(1,0)	(1,0)	(1,0)	(1,0)	(1,0)	(1,0)	
L1D -438>	(147,1)	(180,1)	(204,1)	(177,1)	(438,1)	(1,1)	(152,1)	(-14,1)	(490,1)	(468,1)	(-32,1)	(411,1)	(482,1)	(314,1)	(-28,1)	(380,1)	
L1D -437>	(2,1)	(6,2)	(58,1)	(1,1)	(104,1)	(-1,5)	(88,1)	(407,1)	(416,1)	(274,1)	(279,1)	(345,1)	(255,1)	(1,0)	(1,0)	(1,0)	
L1D -436>	(287,1)	(141,1)	(2,5)	(391,1)	(1,2)	(-16,1)	(327,1)	(410,1)	(28,1)	(26,1)	(262,1)	(-56,1)	(-10,1)	(324,1)	(-24,1)	(476,1)	
L1D -435>	(-1,2)	(24,1)	(497,1)	(481,1)	(36,1)	(156,1)	(192,1)	(246,1)	(279,1)	(1,0)	(1,0)	(1,0)	(1,0)	(1,0)	(1,0)	(1,0)	
L1D -434>	(1,3)	(294,1)	(221,1)	(435,1)	(-43,1)	(164,1)	(312,1)	(348,1)	(219,1)	(326,1)	(422,1)	(416,1)	(334,1)	(380,1)	(309,1)	(77,1)	
L1D -433>	(12,1)	(1,1)	(178,1)	(-1,2)	(403,1)	(0,1)	(445,1)	(323,1)	(1,0)	(1,0)	(1,0)	(1,0)	(1,0)	(1,0)	(1,0)	(1,0)	
L1D -432>	(422,1)	(-1,1)	(433,1)	(388,1)	(222,1)	(1,1)	(370,1)	(353,1)	(483,1)	(273,1)	(385,1)	(220,1)	(176,1)	(142,1)	(99,1)	(114,1)	
L1D -431>	(-1,3)	(1,4)	(463,1)	(354,1)	(3,4)	(382,1)	(185,1)	(38,1)	(349,1)	(270,1)	(391,1)	(12,1)	(1,0)	(1,0)	(1,0)	(1,0)	
L1D -430>	(351,1)	(-1,3)	(156,1)	(105,1)	(13,1)	(136,1)	(-46,1)	(70,1)	(68,1)	(289,1)	(179,1)	(232,1)	(381,1)	(367,1)	(228,1)	(-32,1)	
L1D -429>	(-1,4)	(1,3)	(107,1)	(108,1)	(432,1)	(460,1)	(272,1)	(414,1)	(409,1)	(82,1)	(1,0)	(1,0)	(1,0)	(1,0)	(1,0)	(1,0)	
L1D -428>	(1,2)	(203,1)	(392,1)	(232,1)	(267,2)	(382,1)	(306,1)	(123,1)	(341,1)	(126,1)	(90,1)	(257,1)	(-46,1)	(331,1)	(302,1)	(134,1)	
L1D -427>	(-1,6)	(1,1)	(130,1)	(436,1)	(164,1)	(302,1)	(1,0)	(1,0)	(1,0)	(1,0)	(1,0)	(1,0)	(1,0)	(1,0)	(1,0)	(1,0)	
L1D -426>	(227,1)	(116,1)	(-1,3)	(228,1)	(416,1)	(232,1)	(321,1)	(240,1)	(370,1)	(332,1)	(192,1)	(406,1)	(407,1)	(401,1)	(400,1)	(1,0)	
L1D -425>	(-1,7)	(3,3)	(431,1)	(134,1)	(89,1)	(26,1)	(166,1)	(251,1)	(359,1)	(229,1)	(1,0)	(1,0)	(1,0)	(1,0)	(1,0)	(1,0)	
L1D -424>	(174,1)	(425,1)	(152,1)	(122,2)	(204,2)	(42,1)	(178,1)	(245,1)	(38,1)	(345,1)	(173,1)	(432,1)	(-1,2)	(320,1)	(344,1)	(1,1)	
L1D -423>	(208,1)	(-1,9)	(313,1)	(184,1)	(16,1)	(299,1)	(90,1)	(114,1)	(26,1)	(422,1)	(180,1)	(233,1)	(1,0)	(1,0)	(1,0)	(1,0)	
L1D -422>	(317,1)	(1,1)	(270,1)	(418,2)	(424,1)	(336,1)	(425,1)	(54,1)	(64,1)	(4,1)	(280,1)	(2,1)	(226,1)	(390,1)	(222,1)	(398,1)	
L1D -421>	(-1,4)	(1,1)	(284,1)	(17,1)	(448,1)	(6,1)	(325,1)	(333,1)	(34,1)	(26,1)	(323,1)	(267,1)	(1,0)	(1,0)	(1,0)	(1,0)	
L1D -420>	(326,1)	(1,1)	(19,1)	(416,1)	(224,1)	(264,1)	(419,1)	(216,1)	(322,1)	(84,1)	(236,1)	(458,1)	(296,2)	(284,1)	(176,1)	(206,1)	
L1D -419>	(1,2)	(-1,9)	(3,3)	(223,1)	(162,1)	(379,1)	(364,1)	(180,1)	(345,1)	(355,1)	(1,0)	(1,0)	(1,0)	(1,0)	(1,0)	(1,0)	
L1D -418>	(192,1)	(-1,1)	(251,1)	(19,1)	(178,1)	(442,1)	(320,1)	(384,1)	(396,1)	(118,1)	(352,1)	(1,3)	(14,1)	(110,1)	(-44,1)	(-60,1)	
L1D -417>	(-1,7)	(382,1)	(341,1)	(323,1)	(477,1)	(194,1)	(226,1)	(1,0)	(1,0)	(1,0)	(1,0)	(1,0)	(1,0)	(1,0)	(1,0)	(1,0)	
L1D -416>	(414,1)	(126,1)	(48,1)	(301,1)	(192,1)	(317,1)	(-1,2)	(72,1)	(30,1)	(86,1)	(394,1)	(228,1)	(-50,1)	(440,1)	(332,1)	(430,1)	
L1D -415>	(2,2)	(242,1)	(373,1)	(436,1)	(430,1)	(320,1)	(185,1)	(325,1)	(-1,5)	(60,1)	(251,1)	(124,1)	(148,1)	(271,1)	(351,1)	(253,1)	
L1D -414>	(-1,1)	(324,1)	(382,1)	(8,1)	(-92,1)	(24,1)	(288,1)	(-34,1)	(10,1)	(-26,1)	(165,1)	(414,1)	(62,1)	(1,0)	(1,0)	(1,0)	
L1D -413>	(-1,9)	(1,1)	(473,1)	(33,1)	(471,1)	(1,0)	(1,0)	(1,0)	(1,0)	(1,0)	(1,0)	(1,0)	(1,0)	(1,0)	(1,0)	(1,0)	
L1D -412>	(413,3)	(224,1)	(284,1)	(298,1)	(58,1)	(3,1)	(114,1)	(40,1)	(100,1)	(128,1)	(56,1)	(414,1)	(330,1)	(135,1)	(261,1)	(459,1)	
L1D -411>	(1,1)	(-1,8)	(319,1)	(489,1)	(268,1)	(383,1)	(251,1)	(409,1)	(12,1)	(246,1)	(88,1)	(361,1)	(164,1)	(4,1)	(415,1)	(439,1)	
L1D -410>	(64,1)	(411,2)	(126,1)	(239,1)	(317,1)	(1,3)	(30,1)	(220,1)	(481,1)	(389,1)	(200,1)	(279,1)	(236,1)	(118,1)	(18,1)	(-72,1)	
L1D -409>	(-1,8)	(1,2)	(116,1)	(319,1)	(266,1)	(184,1)	(-54,1)	(-8,1)	(405,1)	(347,1)	(250,1)	(255,1)	(1,0)	(1,0)	(1,0)	(1,0)	
L1D -408>	(1,7)	(-1,2)	(216,1)	(186,1)	(2,1)	(92,3)	(358,1)	(144,1)	(196,1)	(208,1)	(434,1)	(3,1)	(104,1)	(446,1)	(18,1)	(-14,1)	
L1D -407>	(208,1)	(1,5)	(-3,1)	(-7,1)	(303,1)	(42,1)	(25,1)	(215,1)	(287,1)	(-1,4)	(54,1)	(281,1)	(319,1)	(280,1)	(1,0)	(1,0)	
L1D -406>	(303,1)	(92,1)	(137,1)	(96,1)	(192,1)	(94,1)	(51,1)	(344,1)	(390,1)	(418,1)	(84,1)	(112,1)	(438,1)	(-1,1)	(400,1)	(290,1)	
L1D -405>	(-1,7)	(390,1)	(2,1)	(8,1)	(72,1)	(281,1)	(78,1)	(-62,1)	(-44,1)	(343,1)	(338,1)	(118,1)	(1,0)	(1,0)	(1,0)	(1,0)	
L1D -404>	(351,1)	(309,1)	(308,1)	(28,1)	(385,1)	(50,1)	(450,1)	(134,1)	(23,1)	(185,1)	(477,1)	(110,1)	(-18,1)	(368,1)	(1,1)	(416,1)	
L1D -403>	(1,2)	(-1,11)	(310,1)	(245,1)	(313,1)	(389,1)	(273,1)	(395,1)	(268,1)	(48,1)	(9,1)	(367,1)	(321,1)	(143,1)	(251,1)	(56,1)	
L1D -402>	(5,2)	(1,3)	(-55,1)	(168,1)	(234,1)	(293,1)	(54,1)	(152,1)	(225,1)	(-24,1)	(-14,1)	(103,1)	(172,1)	(35,1)	(357,1)	(194,1)	
L1D -401>	(1,3)	(-1,11)	(237,1)	(-30,1)	(294,1)	(209,1)	(-98,1)	(-110,1)	(9,2)	(282,1)	(-18,1)	(402,1)	(1,0)	(1,0)	(1,0)	(1,0)	
L1D -400>	(410,1)	(2,2)	(1,3)	(438,1)	(403,1)	(34,1)	(48,1)	(26,1)	(254,1)	(390,1)	(318,1)	(156,1)	(323,1)	(21,1)	(-16,1)	(168,1)	
L1D -399>	(1,1)	(228,1)	(80,1)	(-1,6)	(393,1)	(231,1)	(60,1)	(385,1)	(-24,1)	(419,1)	(415,1)	(226,1)	(150,1)	(351,1)	(1,0)	(1,0)	
L1D -398>	(204,1)	(399,1)	(-29,1)	(128,1)	(32,1)	(264,1)	(268,1)	(388,1)	(398,1)	(382,1)	(150,2)	(436,1)	(183,1)	(136,1)	(80,1)	(384,1)	
L1D -397>	(1,2)	(-1,11)	(315,1)	(383,1)	(305,1)	(153,1)	(120,1)	(167,1)	(253,1)	(208,1)	(84,1)	(287,1)	(399,1)	(180,1)	(1,0)	(1,0)	
L1D -396>	(-1,5)	(1,6)	(338,1)	(232,1)	(-40,1)	(437,1)	(92,1)	(434,1)	(394,1)	(16,1)	(308,1)	(168,1)	(144,1)	(324,1)	(178,1)	(78,1)	
L1D -395>	(-1,9)	(1,1)	(332,1)	(14,1)	(346,1)	(-4,1)	(232,1)	(193,1)	(223,1)	(102,1)	(4,1)	(1,0)	(1,0)	(1,0)	(1,0)	(1,0)	
L1D -394>	(464,1)	(1,1)	(407,1)	(26,1)	(395,1)	(353,1)	(89,1)	(64,1)	(312,1)	(304,1)	(82,1)	(430,1)	(74,1)	(-40,1)	(306,1)	(278,1)	
L1D -393>	(-1,19)	(1,2)	(263,1)	(26,1)	(219,1)	(477,1)	(27,1)	(399,1)	(76,1)	(453,1)	(1,0)	(1,0)	(1,0)	(1,0)	(1,0)	(1,0)	
L1D -392>	(1,7)	(47,1)	(-1,2)	(257,1)	(393,1)	(32,1)	(407,1)	(255,1)	(14,1)	(394,1)	(-74,1)	(170,1)	(340,1)	(172,1)	(188,1)	(226,1)	
L1D -391>	(-1,7)	(-38,1)	(343,1)	(10,1)	(233,1)	(237,1)	(287,1)	(54,1)	(166,1)	(325,1)	(132,1)	(489,1)	(1,0)	(1,0)	(1,0)	(1,0)	
L1D -390>	(-46,1)	(439,1)	(62,1)	(148,1)	(306,1)	(63,1)	(316,1)	(420,1)	(-1,1)	(46,1)	(4,1)	(1,1)	(24,1)	(138,1)	(234,1)	(252,1)	
L1D -389>	(-1,7)	(165,1)	(118,1)	(246,1)	(418,1)	(-43,1)	(350,1)	(439,1)	(181,1)	(225,1)	(3,1)	(172,1)	(44,1)	(277,1)	(1,0)	(1,0)	
L1D -388>	(-1,2)	(-38,2)	(169,1)	(134,1)	(136,1)	(5,1)	(2,2)	(138,1)	(168,1)	(313,1)	(3,1)	(348,1)	(21,1)	(156,1)	(426,1)	(124,1)	
L1D -387>	(-1,12)	(203,1)	(427,1)	(471,1)	(174,1)	(64,1)	(285,1)	(118,1)	(474,1)	(211,1)	(230,1)	(-80,1)	(36,1)	(1,0)	(1,0)	(1,0)	
L1D -386>	(-2,1)	(166,1)	(296,1)	(60,1)	(396,1)	(211,1)	(266,1)	(268,1)	(168,1)	(244,1)	(384,1)	(280,1)	(10,1)	(345,1)	(-1,1)	(326,1)	
L1D -385>	(1,3)	(-1,13)	(219,1)	(355,1)	(152,1)	(323,1)	(372,1)	(2,1)	(198,1)	(303,1)	(156,1)	(130,1)	(54,1)	(381,1)	(-104,1)	(-28,1)	
L1D -384>	(385,2)	(1,3)	(54,1)	(242,1)	(380,1)	(2,1)	(-82,1)	(323,1)	(356,1)	(368,1)	(196,1)	(306,1)	(60,1)	(255,1)	(248,1)	(52,1)	
L1D -383>	(-1,8)	(1,1)	(126,1)	(299,1)	(4,2)	(202,1)	(76,1)	(168,1)	(281,1)	(15,1)	(483,1)	(334,1)	(70,1)	(317,1)	(379,1)	(1,0)	
L1D -382>	(-1,5)	(1,6)	(158,1)	(272,1)	(25,1)	(-40,2)	(-44,1)	(-21,1)	(170,2)	(342,1)	(-96,1)	(284,1)	(252,1)	(329,1)	(196,1)	(-42,1)	
L1D -381>	(-1,12)	(152,1)	(365,1)	(228,1)	(362,1)	(176,1)	(323,1)	(375,1)	(337,1)	(274,1)	(254,1)	(137,1)	(1,0)	(1,0)	(1,0)	(1,0)	
L1D -380>	(-2,1)	(20,1)	(168,2)	(108,1)	(409,1)	(42,1)	(226,1)	(40,1)	(1,4)	(250,1)	(328,1)	(-18,1)	(124,1)	(126,2)	(34,1)	(324,1)	
L1D -379>	(186,1)	(-1,10)	(1,1)	(348,2)	(50,1)	(461,1)	(46,1)	(411,1)	(271,1)	(267,1)	(180,1)	(260,1)	(323,1)	(-18,1)	(1,0)	(1,0)	
L1D -378>	(68,1)	(332,1)	(138,1)	(278,1)	(253,1)	(-1,2)	(152,1)	(93,1)	(342,1)	(412,1)	(258,1)	(171,2)	(142,1)	(315,1)	(296,1)	(465,2)	
L1D -377>	(1,1)	(-1,11)	(-74,1)	(76,1)	(34,1)	(273,1)	(274,1)	(433,1)	(287,1)	(318,1)	(220,1)	(353,1)	(1,0)	(1,0)	(1,0)	(1,0)	
L1D -376>	(24,2)	(45,1)	(238,1)	(1,3)	(247,1)	(72,1)	(336,1)	(-1,3)	(188,1)	(267,1)	(358,1)	(402,1)	(-63,1)	(-34,1)	(398,1)	(190,1)	
L1D -375>	(-1,11)	(287,1)	(267,1)	(344,1)	(-64,1)	(261,1)	(155,1)	(377,1)	(307,1)	(389,1)	(156,1)	(441,1)	(-28,1)	(211,1)	(1,0)	(1,0)	
L1D -374>	(-49,1)	(-72,1)	(228,1)	(225,1)	(166,1)	(422,1)	(384,1)	(12,1)	(158,1)	(132,1)	(-78,1)	(489,1)	(456,1)	(3,2)	(407,1)	(70,1)	
L1D -373>	(1,2)	(-1,7)	(96,1)	(313,1)	(66,1)	(46,1)	(359,1)	(159,1)	(303,1)	(-34,1)	(180,1)	(367,1)	(238,1)	(1,0)	(1,0)	(1,0)	
L1D -372>	(164,1)	(1,4)	(499,1)	(199,1)	(298,1)	(358,1)	(182,1)	(34,2)	(289,1)	(304,1)	(226,1)	(160,1)	(306,1)	(394,1)	(239,1)	(396,1)	
L1D -371>	(-1,12)	(110,1)	(409,1)	(373,1)	(0,1)	(-28,1)	(368,1)	(427,1)	(360,1)	(339,2)	(126,1)	(463,1)	(152,1)	(279,1)	(1,0)	(1,0)	
L1D -370>	(-52,1)	(371,1)	(236,1)	(266,1)	(-32,1)	(102,1)	(60,1)	(140,1)	(154,2)	(178,1)	(124,1)	(310,1)	(-64,1)	(240,1)	(386,2)	(138,1)	
L1D -369>	(1,1)	(-1,10)	(334,1)	(15,1)	(52,1)	(313,1)	(152,1)	(129,1)	(226,1)	(160,1)	(399,1)	(198,1)	(214,1)	(1,0)	(1,0)	(1,0)	
L1D -368>	(288,1)	(-1,1)	(1,1)	(-78,1)	(392,1)	(108,2)	(295,1)	(198,1)	(259,1)	(466,1)	(296,1)	(344,1)	(369,1)	(90,1)	(346,1)	(397,1)	
L1D -367>	(1,3)	(-1,8)	(30,1)	(242,1)	(0,1)	(12,1)	(423,1)	(-22,1)	(281,1)	(124,1)	(206,1)	(275,1)	(32,1)	(72,1)	(1,0)	(1,0)	
L1D -366>	(408,1)	(217,1)	(363,1)	(183,1)	(220,1)	(364,1)	(462,1)	(-1,2)	(46,1)	(94,1)	(239,1)	(370,1)	(91,1)	(136,1)	(390,1)	(405,1)	
L1D -365>	(1,3)	(-1,9)	(208,1)	(302,1)	(309,1)	(249,1)	(357,1)	(198,1)	(160,1)	(430,1)	(339,1)	(-78,1)	(1,0)	(1,0)	(1,0)	(1,0)	
L1D -364>	(365,2)	(-1,6)	(182,1)	(1,2)	(-28,1)	(134,1)	(418,1)	(264,1)	(384,1)	(56,1)	(246,1)	(142,1)	(-12,1)	(406,1)	(40,1)	(340,1)	
L1D -363>	(1,2)	(-1,17)	(263,1)	(235,1)	(423,1)	(202,1)	(435,1)	(-122,1)	(345,1)	(377,1)	(487,1)	(273,1)	(427,1)	(389,1)	(1,0)	(1,0)	
L1D -362>	(-1,3)	(176,1)	(301,1)	(414,1)	(453,1)	(-12,1)	(332,1)	(329,1)	(335,1)	(396,2)	(138,1)	(86,1)	(254,1)	(85,1)	(442,1)	(1,3)	
L1D -361>	(-1,17)	(114,1)	(411,1)	(348,1)	(365,1)	(422,1)	(142,1)	(242,1)	(366,1)	(-102,1)	(231,1)	(2,1)	(483,1)	(243,1)	(52,1)	(268,1)	
L1D -360>	(4,1)	(475,1)	(36,1)	(56,1)	(-21,1)	(188,1)	(1,3)	(371,1)	(-70,1)	(106,1)	(332,1)	(194,1)	(269,1)	(195,1)	(304,1)	(225,1)	
L1D -359>	(1,2)	(305,1)	(20,1)	(308,1)	(-1,9)	(415,1)	(345,1)	(271,1)	(-96,1)	(116,1)	(269,1)	(237,1)	(311,1)	(115,1)	(367,1)	(1,0)	
L1D -358>	(136,1)	(1,2)	(-1,2)	(15,1)	(60,1)	(352,1)	(231,1)	(84,1)	(40,1)	(297,1)	(-32,1)	(37,1)	(18,1)	(346,1)	(405,1)	(-66,1)	
L1D -357>	(1,2)	(-1,13)	(416,1)	(181,2)	(304,1)	(429,1)	(122,1)	(16,1)	(317,1)	(425,1)	(299,1)	(359,1)	(257,1)	(40,1)	(89,1)	(241,1)	
L1D -356>	(-38,1)	(337,1)	(-106,1)	(-1,2)	(54,1)	(394,1)	(44,1)	(408,1)	(200,1)	(78,1)	(-24,1)	(272,1)	(60,1)	(184,1)	(397,1)	(400,1)	
L1D -355>	(-1,13)	(1,2)	(118,1)	(281,1)	(451,1)	(161,1)	(351,1)	(487,1)	(393,1)	(377,1)	(237,1)	(299,1)	(207,1)	(1,0)	(1,0)	(1,0)	
L1D -354>	(62,1)	(1,3)	(243,1)	(355,2)	(17,1)	(272,1)	(59,1)	(196,1)	(310,1)	(210,1)	(303,1)	(296,1)	(476,1)	(-9,1)	(430,1)	(-50,1)	
L1D -353>	(-1,12)	(412,1)	(243,1)	(100,1)	(297,1)	(200,1)	(2,1)	(238,1)	(247,1)	(221,1)	(148,1)	(389,1)	(-38,1)	(173,1)	(94,1)	(367,3)	
L1D -352>	(295,1)	(-1,7)	(263,1)	(372,1)	(482,1)	(10,1)	(-45,1)	(2,1)	(238,1)	(30,1)	(261,1)	(119,1)	(324,1)	(186,1)	(-72,1)	(-6,1)	
L1D -351>	(1,3)	(-1,21)	(367,1)	(235,1)	(259,1)	(197,1)	(-103,1)	(162,1)	(441,1)	(38,1)	(-18,1)	(140,1)	(-72,1)	(146,1)	(142,1)	(-24,1)	
L1D -350>	(278,1)	(477,1)	(351,1)	(-24,2)	(110,1)	(39,1)	(312,1)	(166,1)	(28,1)	(361,1)	(303,2)	(383,1)	(186,1)	(14,1)	(345,1)	(10,1)	
L1D -349>	(1,4)	(-1,4)	(272,1)	(179,1)	(283,2)	(419,1)	(-70,1)	(247,1)	(58,1)	(315,1)	(-68,1)	(423,1)	(-98,1)	(361,1)	(-22,1)	(343,1)	
L1D -348>	(-1,3)	(350,1)	(389,1)	(407,1)	(-110,1)	(100,1)	(327,1)	(9,1)	(240,1)	(1,1)	(198,1)	(160,1)	(426,1)	(291,1)	(19,1)	(238,1)	
L1D -347>	(1,3)	(-1,7)	(379,1)	(106,1)	(293,1)	(275,1)	(282,1)	(350,1)	(126,1)	(214,1)	(142,1)	(281,1)	(387,1)	(425,1)	(432,1)	(428,1)	
L1D -346>	(182,1)	(347,2)	(1,2)	(259,1)	(2,2)	(-1,3)	(212,1)	(368,1)	(248,1)	(70,1)	(291,1)	(237,2)	(350,1)	(317,1)	(6,1)	(49,1)	
L1D -345>	(1,2)	(231,1)	(-1,11)	(127,1)	(323,1)	(167,2)	(251,1)	(217,1)	(238,1)	(309,1)	(413,1)	(60,1)	(-14,1)	(377,1)	(411,1)	(306,1)	
L1D -344>	(34,1)	(290,2)	(-141,1)	(340,1)	(1,1)	(-88,1)	(40,1)	(283,1)	(4,1)	(148,1)	(-84,1)	(-40,2)	(159,1)	(-34,1)	(352,1)	(223,1)	
L1D -343>	(374,1)	(412,1)	(1,3)	(-1,16)	(405,1)	(-44,1)	(-40,1)	(90,1)	(203,1)	(305,1)	(307,1)	(-69,1)	(53,1)	(219,1)	(329,1)	(276,1)	
L1D -342>	(-74,1)	(228,1)	(-1,4)	(-4,1)	(266,2)	(254,1)	(412,1)	(178,1)	(342,1)	(379,1)	(239,1)	(24,1)	(229,1)	(69,1)	(383,1)	(58,1)	
L1D -341>	(1,2)	(-1,11)	(62,1)	(-58,1)	(297,1)	(365,1)	(353,1)	(16,1)	(155,1)	(-33,1)	(122,1)	(235,1)	(134,1)	(337,1)	(72,1)	(278,1)	
L1D -340>	(-1,2)	(430,1)	(1,2)	(386,1)	(255,1)	(-7,1)	(204,1)	(-46,1)	(346,1)	(352,1)	(-109,1)	(206,1)	(-70,1)	(25,1)	(328,1)	(-139,1)	
L1D -339>	(1,2)	(-36,1)	(-1,8)	(197,1)	(167,1)	(2,1)	(123,1)	(267,1)	(-22,1)	(324,1)	(269,1)	(154,1)	(413,1)	(225,1)	(436,1)	(465,1)	
L1D -338>	(339,2)	(1,5)	(-1,5)	(108,1)	(260,1)	(155,1)	(214,1)	(6,1)	(416,1)	(329,1)	(222,1)	(338,1)	(313,1)	(353,1)	(31,1)	(176,1)	
L1D -337>	(-1,24)	(1,4)	(267,1)	(2,1)	(248,1)	(22,1)	(10,1)	(6,1)	(451,1)	(373,1)	(189,1)	(403,1)	(30,1)	(199,1)	(390,1)	(379,1)	
L1D -336>	(337,2)	(-1,4)	(-28,1)	(317,1)	(94,1)	(328,1)	(1,3)	(343,1)	(202,2)	(216,1)	(348,1)	(44,1)	(440,1)	(306,1)	(-12,1)	(455,1)	
L1D -335>	(-1,15)	(423,1)	(418,1)	(142,1)	(242,1)	(84,1)	(287,2)	(379,1)	(163,1)	(265,1)	(-38,1)	(4,1)	(464,1)	(325,1)	(-72,1)	(120,1)	
L1D -334>	(-1,2)	(19,2)	(1,7)	(194,1)	(3,1)	(318,1)	(42,2)	(434,1)	(80,1)	(8,1)	(251,1)	(114,1)	(336,1)	(-60,1)	(262,1)	(285,1)	
L1D -333>	(1,5)	(138,1)	(-1,17)	(2,1)	(433,1)	(66,1)	(393,1)	(282,1)	(199,1)	(262,1)	(131,1)	(147,1)	(259,1)	(318,1)	(213,1)	(1,0)	
L1D -332>	(2,2)	(1,2)	(72,1)	(34,1)	(154,1)	(353,1)	(18,1)	(3,2)	(218,1)	(182,1)	(418,1)	(351,1)	(238,1)	(441,1)	(368,1)	(308,1)	
L1D -331>	(-1,15)	(-38,1)	(-62,1)	(327,1)	(245,1)	(451,1)	(332,1)	(401,1)	(28,1)	(1,0)	(1,0)	(1,0)	(1,0)	(1,0)	(1,0)	(1,0)	
L1D -330>	(331,3)	(-1,3)	(1,9)	(430,1)	(72,1)	(237,1)	(180,1)	(402,1)	(373,1)	(18,1)	(126,1)	(329,1)	(138,1)	(144,1)	(28,1)	(-68,1)	
L1D -329>	(-1,18)	(19,2)	(3,1)	(112,1)	(224,1)	(345,1)	(44,1)	(0,1)	(10,1)	(239,1)	(173,1)	(-71,1)	(256,1)	(129,1)	(447,1)	(72,1)	
L1D -328>	(-1,2)	(1,2)	(352,1)	(100,1)	(294,2)	(142,1)	(32,1)	(163,1)	(272,1)	(28,1)	(300,1)	(186,1)	(226,1)	(109,1)	(274,1)	(422,1)	
L1D -327>	(1,3)	(-1,10)	(-62,1)	(227,1)	(420,1)	(277,1)	(267,1)	(-30,1)	(99,1)	(12,1)	(147,1)	(112,1)	(355,1)	(397,1)	(427,1)	(2,2)	
L1D -326>	(1,8)	(271,2)	(6,1)	(383,1)	(59,1)	(226,1)	(458,1)	(274,1)	(395,1)	(341,1)	(118,1)	(160,1)	(325,1)	(42,1)	(278,1)	(-81,1)	
L1D -325>	(-1,18)	(1,2)	(24,1)	(93,1)	(413,1)	(255,1)	(12,1)	(233,1)	(261,1)	(293,1)	(377,1)	(87,1)	(3,2)	(169,1)	(309,1)	(14,1)	
L1D -324>	(252,1)	(441,1)	(297,1)	(335,1)	(420,1)	(356,2)	(214,1)	(-74,1)	(72,1)	(132,1)	(278,1)	(94,1)	(4,2)	(-112,1)	(-84,1)	(305,1)	
L1D -323>	(-1,10)	(1,1)	(145,1)	(251,1)	(203,2)	(26,1)	(238,1)	(62,1)	(417,1)	(112,1)	(-116,1)	(-10,1)	(74,1)	(175,1)	(197,1)	(1,0)	
L1D -322>	(249,1)	(323,2)	(1,4)	(353,1)	(74,1)	(208,1)	(0,1)	(-60,1)	(326,2)	(252,1)	(-144,1)	(257,1)	(298,1)	(-3,1)	(299,1)	(386,1)	
L1D -321>	(-1,13)	(133,1)	(54,1)	(381,1)	(2,7)	(315,1)	(210,1)	(56,1)	(424,1)	(351,1)	(377,1)	(-88,1)	(60,1)	(82,1)	(249,1)	(42,1)	
L1D -320>	(-1,3)	(-46,1)	(321,1)	(311,1)	(-7,1)	(-4,1)	(344,1)	(174,1)	(66,1)	(13,1)	(243,1)	(-128,1)	(423,1)	(-38,1)	(395,1)	(340,1)	
L1D -319>	(1,4)	(-1,11)	(438,1)	(411,1)	(202,1)	(36,1)	(339,1)	(-106,1)	(76,1)	(4,1)	(114,1)	(403,1)	(213,1)	(260,1)	(1,0)	(1,0)	
L1D -318>	(-38,1)	(1,3)	(198,1)	(-10,1)	(-1,4)	(90,1)	(246,1)	(234,1)	(-80,1)	(-96,1)	(263,1)	(180,1)	(76,1)	(158,1)	(478,1)	(-36,1)	
L1D -317>	(-24,1)	(-1,11)	(1,2)	(189,1)	(-114,1)	(32,1)	(338,2)	(328,1)	(262,1)	(321,1)	(303,1)	(473,1)	(371,1)	(323,1)	(310,1)	(1,0)	
L1D -316>	(139,1)	(1,5)	(253,1)	(-1,2)	(37,1)	(36,1)	(-150,1)	(-94,1)	(364,1)	(42,1)	(280,1)	(312,1)	(68,1)	(319,1)	(-40,1)	(434,1)	
L1D -315>	(1,5)	(-1,15)	(305,1)	(132,1)	(-22,2)	(371,1)	(-26,1)	(211,1)	(311,1)	(34,1)	(421,1)	(378,1)	(217,1)	(315,1)	(334,1)	(204,2)	
L1D -314>	(1,2)	(234,1)	(248,1)	(398,1)	(-46,1)	(116,1)	(-32,1)	(264,1)	(229,1)	(134,1)	(16,1)	(18,2)	(222,1)	(-1,1)	(-40,1)	(214,1)	
L1D -313>	(1,12)	(-107,1)	(-1,19)	(320,1)	(268,1)	(-32,1)	(30,1)	(263,2)	(46,1)	(220,1)	(87,1)	(90,1)	(4,1)	(165,1)	(347,1)	(479,1)	
L1D -312>	(322,1)	(313,2)	(-1,3)	(276,1)	(152,1)	(72,1)	(386,1)	(36,1)	(122,1)	(283,1)	(134,1)	(85,1)	(112,1)	(214,1)	(106,1)	(114,1)	
L1D -311>	(-1,20)	(295,1)	(255,1)	(-48,1)	(317,1)	(142,1)	(207,1)	(180,1)	(209,1)	(-7,1)	(54,1)	(-18,1)	(356,1)	(489,1)	(212,1)	(313,1)	
L1D -310>	(387,1)	(-1,6)	(1,8)	(3,2)	(-34,1)	(-177,1)	(97,1)	(150,1)	(106,1)	(361,1)	(10,2)	(-54,1)	(280,1)	(188,1)	(148,1)	(405,1)	
L1D -309>	(1,2)	(-1,15)	(391,1)	(281,1)	(181,1)	(415,1)	(152,1)	(68,1)	(-117,1)	(45,1)	(302,1)	(8,1)	(248,1)	(12,1)	(277,1)	(1,0)	
L1D -308>	(352,1)	(1,12)	(273,1)	(377,1)	(184,1)	(-172,1)	(314,1)	(420,1)	(208,1)	(169,1)	(384,1)	(26,1)	(244,1)	(322,1)	(140,1)	(130,1)	
L1D -307>	(-1,16)	(1,9)	(70,1)	(221,1)	(393,1)	(2,1)	(243,1)	(167,1)	(279,1)	(-70,1)	(425,1)	(-61,1)	(182,1)	(387,1)	(479,1)	(315,1)	
L1D -306>	(146,2)	(1,7)	(-196,1)	(-90,1)	(89,1)	(316,1)	(142,1)	(60,1)	(-128,1)	(182,1)	(166,1)	(74,1)	(323,1)	(-16,1)	(360,2)	(160,1)	
L1D -305>	(-170,1)	(-1,16)	(1,10)	(60,1)	(421,1)	(417,1)	(253,1)	(96,1)	(347,1)	(379,1)	(381,1)	(4,1)	(351,1)	(135,1)	(196,1)	(271,1)	
L1D -304>	(1,8)	(214,1)	(305,2)	(205,1)	(136,1)	(174,1)	(379,1)	(-31,1)	(-28,1)	(164,1)	(96,1)	(280,2)	(355,1)	(20,1)	(84,1)	(182,1)	
L1D -303>	(-1,13)	(1,4)	(-13,1)	(66,1)	(8,1)	(98,1)	(417,1)	(-50,1)	(2,3)	(271,1)	(195,1)	(365,1)	(-90,1)	(175,1)	(-72,1)	(335,1)	
L1D -302>	(140,2)	(-1,2)	(48,1)	(1,2)	(-12,1)	(66,1)	(26,1)	(254,1)	(100,1)	(102,1)	(2,1)	(98,1)	(16,1)	(-92,1)	(273,1)	(224,1)	
L1D -301>	(1,5)	(199,1)	(-1,9)	(236,1)	(333,1)	(409,1)	(136,1)	(62,1)	(211,1)	(-100,1)	(-97,1)	(0,1)	(321,1)	(181,1)	(70,1)	(1,0)	
L1D -300>	(1,4)	(244,1)	(313,1)	(20,1)	(39,1)	(301,1)	(228,1)	(-40,2)	(10,1)	(146,2)	(418,1)	(194,1)	(132,1)	(331,1)	(416,1)	(56,1)	
L1D -299>	(1,3)	(-1,14)	(265,1)	(-12,1)	(342,1)	(356,1)	(329,1)	(241,1)	(-169,1)	(299,1)	(106,1)	(315,1)	(1,0)	(1,0)	(1,0)	(1,0)	
L1D -298>	(299,3)	(-1,4)	(1,6)	(167,1)	(174,1)	(62,2)	(232,1)	(-78,1)	(382,1)	(-108,2)	(-8,1)	(306,1)	(240,1)	(330,1)	(355,1)	(21,1)	
L1D -297>	(-1,15)	(1,2)	(2,1)	(174,1)	(311,1)	(52,1)	(-14,1)	(387,1)	(132,1)	(401,1)	(231,1)	(-4,1)	(156,1)	(-68,1)	(-46,1)	(95,1)	
L1D -296>	(1,4)	(298,1)	(-26,2)	(44,1)	(30,1)	(144,2)	(6,1)	(40,1)	(130,2)	(247,1)	(-28,1)	(122,1)	(-10,1)	(282,1)	(398,1)	(172,1)	
L1D -295>	(1,2)	(-1,15)	(88,1)	(279,1)	(246,1)	(331,1)	(121,1)	(-72,1)	(95,1)	(465,1)	(375,1)	(-4,1)	(205,1)	(171,1)	(203,1)	(252,1)	
L1D -294>	(295,3)	(193,1)	(459,1)	(-1,6)	(21,1)	(144,1)	(24,1)	(110,1)	(88,1)	(11,1)	(152,1)	(203,2)	(485,1)	(90,1)	(-126,1)	(224,1)	
L1D -293>	(-1,20)	(4,2)	(3,2)	(2,1)	(1,2)	(45,1)	(295,1)	(-164,1)	(233,1)	(403,1)	(87,1)	(363,1)	(80,1)	(152,1)	(-16,1)	(159,1)	
L1D -292>	(-1,7)	(0,9)	(269,1)	(3,1)	(205,1)	(209,1)	(-86,1)	(2,2)	(146,1)	(36,1)	(298,2)	(345,1)	(255,1)	(444,1)	(242,1)	(286,1)	
L1D -291>	(1,7)	(-1,24)	(357,1)	(45,1)	(-144,1)	(225,1)	(394,1)	(276,1)	(0,8)	(213,1)	(210,1)	(215,1)	(251,1)	(98,1)	(266,1)	(-36,1)	
L1D -290>	(180,1)	(291,3)	(194,1)	(-55,1)	(382,1)	(-24,1)	(-86,1)	(337,1)	(214,1)	(278,1)	(1,3)	(-26,1)	(13,1)	(6,1)	(225,1)	(160,1)	
L1D -289>	(1,4)	(-1,19)	(201,1)	(29,1)	(141,1)	(4,1)	(286,1)	(2,3)	(361,1)	(324,1)	(227,1)	(-109,1)	(7,1)	(309,1)	(353,1)	(419,1)	
L1D -288>	(289,4)	(257,1)	(1,2)	(302,1)	(-6,2)	(172,1)	(0,1)	(347,1)	(-45,1)	(272,1)	(178,1)	(110,1)	(247,1)	(22,1)	(4,2)	(146,1)	
L1D -287>	(1,3)	(279,1)	(-1,24)	(265,1)	(281,1)	(288,1)	(142,1)	(64,1)	(124,1)	(121,1)	(-54,1)	(249,1)	(174,1)	(205,1)	(48,1)	(347,1)	
L1D -286>	(348,1)	(1,3)	(287,3)	(431,1)	(128,1)	(373,1)	(101,1)	(159,1)	(337,1)	(99,1)	(52,2)	(-108,1)	(323,1)	(-24,1)	(42,1)	(256,1)	
L1D -285>	(42,1)	(-1,19)	(234,1)	(64,1)	(0,4)	(-188,1)	(126,1)	(379,1)	(-68,1)	(363,1)	(390,1)	(4,1)	(44,1)	(106,1)	(-184,1)	(-30,1)	
L1D -284>	(232,1)	(-77,2)	(275,1)	(-14,1)	(26,2)	(10,1)	(344,1)	(-98,1)	(1,3)	(-10,1)	(124,1)	(8,1)	(182,1)	(262,1)	(408,1)	(13,1)	
L1D -283>	(1,3)	(-1,16)	(391,1)	(254,1)	(204,1)	(214,1)	(329,1)	(289,1)	(462,1)	(319,1)	(0,2)	(291,1)	(283,1)	(459,1)	(141,1)	(385,1)	
L1D -282>	(356,1)	(-32,1)	(-1,2)	(70,1)	(335,1)	(175,1)	(362,1)	(200,1)	(-20,1)	(284,1)	(232,1)	(76,1)	(-128,1)	(60,1)	(0,8)	(153,1)	
L1D -281>	(-1,19)	(1,4)	(-22,1)	(218,1)	(285,1)	(493,1)	(225,1)	(383,1)	(173,1)	(220,1)	(315,1)	(297,1)	(12,1)	(2,1)	(271,1)	(147,1)	
L1D -280>	(1,7)	(2,6)	(68,1)	(160,1)	(232,2)	(196,2)	(278,1)	(204,1)	(368,1)	(140,1)	(242,1)	(-12,1)	(-1,3)	(132,1)	(116,1)	(388,1)	
L1D -279>	(-1,19)	(1,4)	(169,1)	(115,1)	(58,1)	(397,1)	(-44,1)	(193,1)	(82,1)	(-119,1)	(177,1)	(221,1)	(463,1)	(276,1)	(286,1)	(-50,1)	
L1D -278>	(1,6)	(-49,1)	(224,1)	(159,1)	(280,1)	(250,1)	(83,1)	(-18,1)	(310,1)	(72,1)	(24,1)	(-94,1)	(190,1)	(180,1)	(108,1)	(166,1)	
L1D -277>	(-1,21)	(1,2)	(429,1)	(120,1)	(16,1)	(112,1)	(-69,1)	(227,1)	(310,1)	(182,1)	(317,1)	(-95,1)	(178,1)	(24,1)	(124,1)	(-39,1)	
L1D -276>	(-40,1)	(-1,4)	(321,1)	(285,1)	(310,1)	(-32,1)	(42,1)	(52,1)	(317,1)	(161,1)	(268,1)	(242,1)	(156,2)	(323,1)	(110,1)	(220,1)	
L1D -275>	(1,2)	(-83,1)	(-1,15)	(389,1)	(66,2)	(327,1)	(285,1)	(129,1)	(-8,1)	(391,1)	(26,1)	(94,1)	(197,1)	(373,2)	(-13,1)	(52,1)	
L1D -274>	(1,4)	(-1,8)	(90,1)	(201,2)	(235,1)	(53,1)	(308,1)	(179,1)	(202,1)	(309,1)	(379,1)	(374,1)	(92,1)	(-14,2)	(88,1)	(383,1)	
L1D -273>	(-1,22)	(1,2)	(253,1)	(156,1)	(-104,1)	(-28,1)	(283,1)	(186,1)	(261,1)	(106,1)	(240,2)	(60,1)	(231,2)	(403,1)	(153,1)	(304,1)	
L1D -272>	(202,1)	(273,1)	(1,3)	(268,1)	(174,1)	(297,1)	(188,2)	(-1,3)	(32,1)	(-78,1)	(58,1)	(117,1)	(-80,1)	(265,1)	(108,1)	(98,1)	
L1D -271>	(-1,17)	(-6,1)	(159,1)	(277,1)	(116,1)	(52,1)	(253,1)	(302,1)	(142,1)	(86,1)	(301,1)	(-18,1)	(181,1)	(44,1)	(321,1)	(291,1)	
L1D -270>	(205,1)	(21,1)	(154,1)	(238,1)	(4,2)	(-118,1)	(110,1)	(-130,1)	(54,1)	(86,1)	(98,1)	(310,2)	(396,1)	(256,2)	(-194,1)	(164,1)	
L1D -269>	(1,3)	(-1,18)	(10,1)	(6,1)	(175,1)	(361,1)	(283,1)	(16,1)	(189,1)	(3,1)	(-2,1)	(267,1)	(225,1)	(277,1)	(295,2)	(224,1)	
L1D -268>	(1,2)	(368,1)	(271,1)	(333,1)	(-124,1)	(-112,1)	(342,1)	(294,1)	(282,1)	(286,1)	(82,1)	(245,1)	(168,1)	(178,1)	(-61,1)	(-1,2)	
L1D -267>	(1,5)	(-1,21)	(-113,1)	(229,1)	(190,1)	(291,1)	(173,1)	(56,1)	(461,1)	(139,1)	(126,1)	(79,1)	(295,1)	(90,1)	(201,1)	(266,1)	
L1D -266>	(191,1)	(-32,1)	(48,1)	(194,1)	(242,1)	(313,1)	(146,1)	(2,1)	(-55,1)	(54,1)	(-96,1)	(292,1)	(230,1)	(62,1)	(116,1)	(45,1)	
L1D -265>	(-1,18)	(1,2)	(279,1)	(323,1)	(64,1)	(311,1)	(421,1)	(227,1)	(299,1)	(155,1)	(257,1)	(0,1)	(-192,1)	(-62,1)	(147,1)	(251,1)	
L1D -264>	(58,1)	(-1,7)	(287,1)	(2,1)	(265,1)	(171,1)	(122,1)	(291,1)	(1,4)	(396,1)	(45,1)	(358,1)	(208,1)	(91,1)	(192,1)	(162,1)	
L1D -263>	(1,5)	(-1,26)	(122,2)	(133,1)	(280,1)	(90,1)	(117,1)	(129,1)	(3,5)	(-62,1)	(293,1)	(158,1)	(270,1)	(243,1)	(164,1)	(257,1)	
L1D -262>	(-128,1)	(199,1)	(305,1)	(285,1)	(263,1)	(287,3)	(274,1)	(203,1)	(188,1)	(140,1)	(192,1)	(202,1)	(-94,1)	(76,1)	(479,1)	(-175,1)	
L1D -261>	(1,9)	(-1,17)	(30,1)	(441,1)	(272,1)	(229,1)	(321,1)	(0,1)	(220,1)	(2,1)	(151,1)	(-52,1)	(3,2)	(-68,1)	(235,1)	(-54,1)	
L1D -260>	(-1,6)	(374,1)	(261,2)	(115,1)	(10,2)	(-78,1)	(36,1)	(8,1)	(-68,1)	(86,1)	(-107,1)	(-88,1)	(206,1)	(420,1)	(-14,1)	(322,1)	
L1D -259>	(1,5)	(-1,18)	(142,1)	(195,1)	(350,1)	(9,1)	(90,1)	(197,1)	(263,1)	(2,2)	(357,1)	(323,1)	(123,1)	(259,1)	(-94,1)	(171,1)	
L1D -258>	(90,1)	(259,3)	(-120,1)	(112,2)	(170,1)	(-94,1)	(462,1)	(190,1)	(4,1)	(102,1)	(243,1)	(241,1)	(199,1)	(-64,1)	(359,1)	(298,1)	
L1D -257>	(-1,23)	(263,1)	(325,1)	(337,1)	(243,1)	(64,1)	(42,1)	(-212,1)	(375,1)	(250,1)	(237,1)	(347,1)	(213,1)	(-128,1)	(332,1)	(255,1)	
L1D -256>	(28,2)	(-64,1)	(150,1)	(-110,1)	(-100,1)	(126,1)	(322,2)	(116,1)	(205,1)	(66,1)	(243,1)	(138,1)	(197,2)	(86,2)	(-1,2)	(-38,1)	
L1D -255>	(128,1)	(-88,1)	(4,1)	(-1,23)	(12,1)	(245,1)	(2,1)	(20,1)	(148,1)	(55,1)	(-130,1)	(199,1)	(155,1)	(281,1)	(405,1)	(75,1)	
L1D -254>	(-1,4)	(233,1)	(255,3)	(3,2)	(271,1)	(60,1)	(254,1)	(455,1)	(225,1)	(391,1)	(24,1)	(47,1)	(166,1)	(37,1)	(-12,1)	(-48,1)	
L1D -253>	(-1,22)	(1,2)	(109,1)	(245,1)	(-212,1)	(48,1)	(297,1)	(136,1)	(60,1)	(246,1)	(219,1)	(2,1)	(58,1)	(-32,1)	(323,1)	(479,1)	
L1D -252>	(-37,1)	(-1,5)	(1,5)	(225,1)	(-88,1)	(260,1)	(292,1)	(28,1)	(-68,1)	(288,1)	(61,1)	(-72,1)	(-156,1)	(82,1)	(4,1)	(40,1)	
L1D -251>	(-1,21)	(1,6)	(219,1)	(-106,1)	(373,1)	(2,1)	(22,1)	(122,2)	(127,1)	(269,1)	(-10,1)	(-137,1)	(294,1)	(427,1)	(176,1)	(110,1)	
L1D -250>	(-1,7)	(136,1)	(411,1)	(2,3)	(291,1)	(277,1)	(1,2)	(390,1)	(108,1)	(126,1)	(266,1)	(400,1)	(-58,1)	(186,1)	(301,1)	(-176,1)	
L1D -249>	(-1,15)	(243,1)	(46,1)	(438,1)	(89,1)	(-44,1)	(227,1)	(-14,1)	(422,1)	(198,1)	(2,1)	(180,1)	(324,1)	(223,1)	(320,1)	(285,1)	
L1D -248>	(249,4)	(-1,5)	(1,7)	(4,2)	(178,1)	(119,1)	(139,3)	(254,2)	(503,1)	(-102,1)	(216,1)	(274,1)	(-101,1)	(184,1)	(415,1)	(140,1)	
L1D -247>	(1,9)	(-1,23)	(244,1)	(33,1)	(198,1)	(36,1)	(307,1)	(-106,1)	(287,1)	(163,1)	(279,1)	(-47,1)	(120,1)	(188,1)	(379,1)	(241,1)	
L1D -246>	(247,2)	(289,1)	(238,2)	(72,2)	(439,1)	(83,1)	(237,1)	(-1,2)	(348,1)	(134,1)	(196,2)	(320,1)	(41,1)	(140,1)	(29,1)	(370,1)	
L1D -245>	(1,10)	(-1,24)	(79,1)	(359,1)	(397,2)	(8,1)	(-143,1)	(369,1)	(286,1)	(74,1)	(3,1)	(-116,1)	(323,1)	(423,1)	(-126,1)	(223,1)	
L1D -244>	(-1,3)	(109,1)	(231,1)	(-207,1)	(323,1)	(118,1)	(-26,1)	(110,1)	(351,1)	(310,1)	(296,1)	(1,3)	(263,1)	(201,1)	(116,1)	(282,1)	
L1D -243>	(1,2)	(-1,21)	(64,1)	(179,1)	(287,1)	(-13,2)	(297,1)	(288,1)	(295,1)	(333,1)	(447,1)	(216,1)	(-90,1)	(319,1)	(3,1)	(18,1)	
L1D -242>	(-1,5)	(243,2)	(1,3)	(58,1)	(94,1)	(84,1)	(-40,2)	(16,1)	(2,1)	(210,1)	(271,1)	(180,1)	(-36,1)	(19,1)	(-55,1)	(260,1)	
L1D -241>	(1,3)	(-1,29)	(275,2)	(2,1)	(448,1)	(89,1)	(-142,1)	(8,1)	(-154,1)	(149,3)	(335,1)	(229,1)	(-52,1)	(-14,1)	(117,1)	(299,1)	
L1D -240>	(130,1)	(436,1)	(-1,4)	(1,4)	(264,1)	(-10,1)	(124,1)	(8,1)	(14,1)	(-154,1)	(168,1)	(228,1)	(34,1)	(-182,1)	(2,2)	(-138,1)	
L1D -239>	(-1,16)	(1,5)	(3,4)	(122,1)	(69,2)	(-250,1)	(-102,1)	(185,1)	(90,1)	(195,1)	(-12,1)	(87,1)	(307,1)	(-35,1)	(63,1)	(9,1)	
L1D -238>	(1,5)	(319,1)	(-1,2)	(107,1)	(161,1)	(350,1)	(-132,1)	(106,1)	(252,1)	(44,1)	(215,1)	(172,1)	(190,1)	(-142,1)	(-14,1)	(0,1)	
L1D -237>	(-1,16)	(1,4)	(-196,1)	(207,1)	(181,2)	(66,1)	(-140,1)	(300,1)	(-65,1)	(339,1)	(267,1)	(239,1)	(-18,1)	(302,1)	(175,1)	(167,1)	
L1D -236>	(237,3)	(-1,3)	(3,1)	(-41,1)	(-76,1)	(271,1)	(329,1)	(91,1)	(290,1)	(353,1)	(258,2)	(188,2)	(-86,1)	(-14,2)	(396,1)	(264,1)	
L1D -235>	(-1,16)	(1,3)	(54,1)	(-174,1)	(353,1)	(-130,1)	(247,1)	(306,1)	(164,1)	(161,1)	(334,1)	(367,1)	(273,1)	(287,1)	(129,1)	(-39,1)	
L1D -234>	(1,5)	(140,1)	(95,1)	(90,1)	(426,1)	(-70,1)	(284,1)	(32,1)	(344,1)	(70,1)	(76,1)	(4,1)	(128,1)	(333,1)	(-6,2)	(270,1)	
L1D -233>	(1,9)	(-1,21)	(-36,1)	(91,1)	(-84,1)	(249,2)	(201,1)	(277,1)	(-195,1)	(-67,1)	(85,1)	(357,1)	(392,1)	(223,1)	(6,1)	(-86,1)	
L1D -232>	(233,3)	(-1,7)	(69,2)	(-152,1)	(116,2)	(206,2)	(376,1)	(-88,1)	(100,1)	(60,2)	(148,1)	(-168,1)	(283,1)	(90,1)	(180,2)	(-172,1)	
L1D -231>	(1,4)	(-1,20)	(187,1)	(194,1)	(179,1)	(208,1)	(21,1)	(-162,1)	(291,1)	(18,1)	(123,1)	(134,1)	(225,1)	(460,1)	(214,1)	(-166,1)	
L1D -230>	(-1,5)	(232,1)	(139,1)	(1,6)	(402,1)	(-78,1)	(-52,1)	(203,1)	(-6,1)	(73,2)	(218,1)	(-32,1)	(-2,1)	(120,2)	(125,1)	(-72,1)	
L1D -229>	(1,5)	(-1,21)	(215,1)	(315,1)	(395,1)	(323,1)	(169,1)	(175,1)	(73,1)	(-56,1)	(373,2)	(241,1)	(256,1)	(43,1)	(12,1)	(46,1)	
L1D -228>	(23,1)	(-1,5)	(345,1)	(118,1)	(232,1)	(283,1)	(212,1)	(346,1)	(69,1)	(120,1)	(-42,2)	(309,1)	(26,1)	(246,1)	(-88,1)	(53,1)	
L1D -227>	(-1,20)	(1,3)	(3,1)	(281,1)	(58,1)	(-126,1)	(6,1)	(417,1)	(-138,1)	(182,1)	(321,1)	(29,1)	(-178,1)	(143,1)	(212,1)	(184,1)	
L1D -226>	(227,3)	(-93,1)	(84,1)	(47,1)	(276,1)	(369,1)	(-144,1)	(-130,1)	(18,1)	(-132,1)	(20,1)	(230,1)	(298,1)	(-88,1)	(-69,1)	(94,1)	
L1D -225>	(297,1)	(1,5)	(170,1)	(217,1)	(-1,18)	(80,1)	(337,1)	(-204,2)	(368,1)	(26,1)	(144,1)	(152,1)	(212,1)	(-39,1)	(360,1)	(92,1)	
L1D -224>	(137,1)	(177,1)	(-1,4)	(225,3)	(219,1)	(112,1)	(118,1)	(346,1)	(260,1)	(-63,1)	(402,1)	(164,1)	(176,2)	(200,1)	(62,1)	(252,1)	
L1D -223>	(1,5)	(-1,30)	(-98,1)	(58,1)	(299,1)	(333,1)	(229,1)	(375,1)	(12,1)	(39,1)	(81,1)	(249,1)	(-126,1)	(126,1)	(259,1)	(266,1)	
L1D -222>	(-1,3)	(4,2)	(363,1)	(223,1)	(203,1)	(420,1)	(162,1)	(176,1)	(-12,1)	(281,1)	(39,1)	(242,1)	(10,1)	(296,1)	(235,1)	(192,1)	
L1D -221>	(-1,19)	(238,1)	(252,1)	(272,1)	(-36,1)	(97,1)	(174,1)	(303,1)	(82,1)	(77,1)	(408,1)	(233,1)	(243,1)	(-22,1)	(342,1)	(76,1)	
L1D -220>	(4,1)	(1,7)	(-1,7)	(334,1)	(158,2)	(282,1)	(260,1)	(130,1)	(308,1)	(374,1)	(108,1)	(-70,1)	(-41,1)	(458,1)	(102,1)	(138,1)	
L1D -219>	(1,4)	(-1,24)	(206,1)	(12,1)	(195,1)	(-150,1)	(18,1)	(284,1)	(231,1)	(103,1)	(359,1)	(40,1)	(332,1)	(156,1)	(183,1)	(-130,1)	
L1D -218>	(1,2)	(-1,5)	(219,3)	(274,1)	(-89,1)	(-262,1)	(116,1)	(260,1)	(54,1)	(40,1)	(275,1)	(102,2)	(234,1)	(160,1)	(-168,1)	(205,1)	
L1D -217>	(1,5)	(-1,23)	(131,1)	(49,1)	(242,1)	(185,1)	(235,1)	(238,1)	(227,1)	(375,1)	(429,1)	(159,1)	(183,1)	(176,1)	(-114,1)	(267,1)	
L1D -216>	(217,3)	(95,1)	(-4,2)	(148,1)	(50,1)	(270,1)	(134,1)	(289,1)	(265,1)	(248,1)	(348,1)	(244,1)	(53,1)	(62,1)	(184,1)	(252,1)	
L1D -215>	(-1,20)	(1,3)	(196,1)	(-70,1)	(147,1)	(40,1)	(27,1)	(206,1)	(-80,1)	(153,1)	(-38,1)	(108,1)	(175,1)	(295,1)	(84,1)	(144,1)	
L1D -214>	(-1,9)	(-190,1)	(1,2)	(182,1)	(164,1)	(150,2)	(98,1)	(16,2)	(146,1)	(-34,1)	(226,1)	(14,1)	(190,1)	(48,3)	(133,1)	(-26,1)	
L1D -213>	(-1,20)	(329,1)	(145,1)	(205,1)	(130,1)	(181,1)	(161,1)	(-24,1)	(156,1)	(84,1)	(331,1)	(50,1)	(16,1)	(189,1)	(255,1)	(175,1)	
L1D -212>	(174,1)	(-1,7)	(213,1)	(238,1)	(-12,1)	(362,1)	(116,1)	(181,1)	(241,1)	(314,1)	(389,1)	(292,1)	(182,1)	(44,1)	(14,1)	(108,2)	
L1D -211>	(1,8)	(246,1)	(-1,23)	(221,1)	(-188,1)	(-168,1)	(150,1)	(8,1)	(-24,1)	(381,1)	(207,2)	(-74,1)	(-107,1)	(111,1)	(-100,1)	(154,1)	
L1D -210>	(1,8)	(200,1)	(-1,3)	(211,2)	(-171,1)	(-52,1)	(22,1)	(220,1)	(382,1)	(156,1)	(8,2)	(193,1)	(314,1)	(14,1)	(92,1)	(-104,1)	
L1D -209>	(1,4)	(-1,32)	(123,1)	(129,1)	(83,1)	(-221,1)	(74,1)	(-210,1)	(157,1)	(-66,1)	(38,2)	(375,1)	(269,1)	(155,1)	(221,1)	(215,1)	
L1D -208>	(1,2)	(-162,1)	(209,2)	(-1,2)	(-154,1)	(-114,1)	(-6,1)	(-10,1)	(12,1)	(0,1)	(80,1)	(13,1)	(86,2)	(38,1)	(-280,1)	(4,1)	
L1D -207>	(1,4)	(-1,31)	(69,1)	(298,1)	(32,1)	(345,1)	(157,1)	(192,1)	(395,1)	(251,1)	(250,1)	(-89,1)	(290,1)	(-172,1)	(-26,1)	(6,1)	
L1D -206>	(1,3)	(-16,1)	(207,3)	(-1,3)	(188,1)	(-92,3)	(425,1)	(-247,1)	(-102,2)	(-122,1)	(128,1)	(-56,1)	(147,1)	(225,1)	(238,1)	(118,1)	
L1D -205>	(1,10)	(53,1)	(-1,25)	(-220,1)	(251,1)	(-32,1)	(217,1)	(365,1)	(409,1)	(291,1)	(265,1)	(69,1)	(163,1)	(243,1)	(339,1)	(208,1)	
L1D -204>	(134,1)	(205,4)	(30,1)	(396,1)	(320,1)	(404,1)	(59,1)	(162,1)	(249,1)	(35,1)	(233,1)	(96,1)	(241,1)	(100,1)	(263,1)	(-24,1)	
L1D -203>	(-1,24)	(175,1)	(1,2)	(369,1)	(289,1)	(269,1)	(-26,1)	(126,1)	(335,1)	(141,1)	(160,1)	(287,1)	(23,1)	(220,1)	(-198,1)	(-168,1)	
L1D -202>	(1,4)	(-1,6)	(113,1)	(-182,2)	(-41,1)	(96,1)	(249,1)	(186,1)	(-42,2)	(110,1)	(158,1)	(189,1)	(-22,2)	(-16,1)	(-162,2)	(275,1)	
L1D -201>	(-1,39)	(1,9)	(331,1)	(175,1)	(30,2)	(193,1)	(-140,1)	(-16,1)	(-184,1)	(148,1)	(149,1)	(184,1)	(-187,1)	(98,1)	(140,1)	(394,1)	
L1D -200>	(-1,1)	(143,1)	(-148,3)	(222,1)	(99,1)	(1,3)	(157,1)	(185,1)	(33,1)	(316,1)	(376,1)	(246,1)	(-258,2)	(55,1)	(279,1)	(-66,1)	
L1D -199>	(1,6)	(-1,34)	(-98,1)	(-36,1)	(-103,1)	(246,1)	(297,1)	(164,1)	(215,1)	(247,1)	(236,1)	(233,1)	(122,1)	(77,1)	(278,1)	(294,1)	
L1D -198>	(1,3)	(-1,7)	(199,2)	(102,1)	(25,1)	(262,1)	(-10,1)	(126,1)	(184,1)	(72,1)	(-153,1)	(193,1)	(71,1)	(141,1)	(146,1)	(402,1)	
L1D -197>	(46,1)	(-1,23)	(1,6)	(186,1)	(30,1)	(417,1)	(251,1)	(217,2)	(406,1)	(369,1)	(-214,1)	(230,1)	(291,1)	(297,1)	(-28,1)	(146,1)	
L1D -196>	(-1,8)	(50,1)	(90,1)	(248,1)	(214,1)	(-12,1)	(286,1)	(-158,1)	(158,2)	(156,1)	(29,1)	(202,1)	(-45,1)	(86,1)	(113,1)	(-44,1)	
L1D -195>	(-1,36)	(1,9)	(123,1)	(6,1)	(-62,1)	(285,1)	(295,1)	(118,1)	(-151,1)	(-166,1)	(287,1)	(147,1)	(54,2)	(381,1)	(8,1)	(-50,2)	
L1D -194>	(1,6)	(-1,6)	(150,2)	(195,2)	(308,1)	(-84,1)	(-68,1)	(-189,1)	(176,1)	(-18,1)	(220,1)	(72,1)	(9,1)	(228,2)	(36,1)	(-232,1)	
L1D -193>	(-1,33)	(1,3)	(-5,1)	(92,1)	(-110,1)	(213,1)	(156,1)	(190,1)	(251,1)	(219,1)	(302,1)	(423,1)	(51,1)	(186,1)	(119,1)	(14,1)	
L1D -192>	(-1,7)	(1,4)	(193,2)	(92,1)	(192,1)	(351,1)	(-190,1)	(-125,1)	(278,1)	(-2,1)	(276,1)	(70,1)	(-50,1)	(48,1)	(12,3)	(302,1)	
L1D -191>	(-1,30)	(1,4)	(411,1)	(203,1)	(-142,1)	(88,1)	(209,1)	(89,1)	(-58,1)	(250,1)	(-188,1)	(117,1)	(-86,1)	(-180,1)	(109,1)	(185,1)	
L1D -190>	(48,1)	(142,2)	(-1,5)	(115,1)	(0,1)	(147,1)	(233,1)	(124,1)	(-120,1)	(134,1)	(276,1)	(371,1)	(352,1)	(-110,1)	(50,1)	(158,1)	
L1D -189>	(-1,32)	(32,1)	(1,5)	(-138,1)	(-20,1)	(21,1)	(277,1)	(-60,1)	(239,1)	(247,1)	(251,1)	(121,1)	(45,1)	(417,1)	(160,1)	(-52,1)	
L1D -188>	(-1,8)	(-178,2)	(1,4)	(-76,1)	(133,1)	(331,1)	(74,3)	(-52,1)	(-56,1)	(350,1)	(262,1)	(184,1)	(120,1)	(-102,1)	(88,1)	(12,1)	
L1D -187>	(1,3)	(-1,35)	(335,1)	(257,2)	(188,1)	(121,1)	(165,1)	(6,1)	(183,1)	(186,1)	(-106,1)	(113,1)	(293,1)	(-128,1)	(-58,1)	(-109,1)	
L1D -186>	(1,4)	(-1,4)	(80,1)	(187,1)	(74,1)	(18,1)	(154,1)	(196,1)	(-58,1)	(-117,1)	(305,1)	(34,1)	(164,1)	(-34,1)	(344,1)	(138,1)	
L1D -185>	(-1,30)	(1,6)	(3,2)	(272,1)	(88,1)	(444,1)	(-277,1)	(49,1)	(-54,1)	(16,1)	(182,1)	(137,1)	(2,1)	(164,1)	(145,1)	(75,1)	
L1D -184>	(1,4)	(94,2)	(-52,2)	(268,1)	(121,1)	(-66,1)	(162,1)	(-272,1)	(58,2)	(248,1)	(229,1)	(-85,1)	(111,1)	(136,1)	(213,1)	(186,1)	
L1D -183>	(1,8)	(-1,31)	(34,1)	(84,1)	(181,1)	(106,1)	(57,1)	(3,1)	(145,1)	(-36,1)	(2,1)	(-11,1)	(296,1)	(125,1)	(-173,1)	(288,1)	
L1D -182>	(1,8)	(418,1)	(-148,1)	(184,2)	(132,1)	(70,1)	(-46,2)	(88,1)	(396,1)	(303,1)	(-90,1)	(154,1)	(96,1)	(-42,1)	(-159,1)	(-72,1)	
L1D -181>	(142,1)	(-1,34)	(1,3)	(-232,1)	(271,1)	(-30,1)	(261,1)	(301,1)	(209,1)	(120,1)	(-118,1)	(124,1)	(-170,1)	(162,1)	(81,1)	(322,1)	
L1D -180>	(-112,1)	(175,1)	(197,1)	(-1,10)	(1,3)	(94,1)	(-116,1)	(-228,1)	(395,1)	(26,1)	(-227,1)	(416,1)	(213,1)	(-158,1)	(34,1)	(-16,1)	
L1D -179>	(-1,31)	(1,7)	(284,1)	(146,1)	(279,1)	(177,1)	(-118,1)	(129,1)	(291,1)	(223,1)	(253,1)	(-36,1)	(158,1)	(8,1)	(152,1)	(85,1)	
L1D -178>	(336,1)	(-1,9)	(235,1)	(345,1)	(139,1)	(182,1)	(-111,1)	(113,1)	(48,1)	(60,1)	(-127,1)	(320,1)	(56,1)	(138,2)	(213,2)	(38,1)	
L1D -177>	(1,3)	(-1,39)	(2,1)	(50,1)	(125,1)	(85,1)	(321,1)	(194,1)	(102,1)	(6,1)	(15,1)	(113,1)	(-197,1)	(203,2)	(-250,1)	(207,1)	
L1D -176>	(-1,10)	(177,4)	(1,3)	(142,1)	(-2,1)	(-36,1)	(-152,1)	(241,1)	(14,1)	(140,1)	(222,2)	(279,1)	(-61,1)	(25,1)	(-238,1)	(122,1)	
L1D -175>	(1,6)	(-1,34)	(196,1)	(2,1)	(-52,1)	(74,1)	(365,1)	(385,1)	(217,1)	(16,1)	(-158,1)	(147,1)	(50,1)	(-229,1)	(-210,1)	(230,1)	
L1D -174>	(481,1)	(-1,5)	(194,1)	(30,1)	(48,1)	(-30,1)	(-40,1)	(300,1)	(-130,1)	(144,1)	(295,1)	(152,1)	(261,1)	(-62,1)	(438,1)	(132,1)	
L1D -173>	(-96,1)	(1,9)	(-1,35)	(-37,1)	(176,1)	(-24,1)	(3,1)	(305,1)	(219,1)	(331,1)	(-148,1)	(111,1)	(180,1)	(345,1)	(-22,1)	(52,1)	
L1D -172>	(1,7)	(113,1)	(158,1)	(-255,1)	(254,2)	(308,2)	(226,1)	(-166,1)	(-163,1)	(178,1)	(30,2)	(60,1)	(116,1)	(354,1)	(-284,1)	(222,2)	
L1D -171>	(-1,40)	(-48,1)	(1,8)	(329,1)	(289,1)	(-79,1)	(20,1)	(2,2)	(6,1)	(150,1)	(3,2)	(174,1)	(307,1)	(152,2)	(136,1)	(357,1)	
L1D -170>	(261,1)	(-1,5)	(-26,2)	(277,1)	(269,2)	(210,1)	(446,1)	(146,1)	(108,1)	(104,1)	(-229,1)	(223,1)	(-16,1)	(106,1)	(176,1)	(-120,1)	
L1D -169>	(-57,2)	(1,7)	(-1,39)	(213,2)	(72,1)	(465,1)	(390,1)	(-70,1)	(319,1)	(101,1)	(109,1)	(-220,1)	(-187,1)	(129,1)	(76,1)	(-8,1)	
L1D -168>	(168,2)	(150,1)	(-182,1)	(1,6)	(-32,1)	(68,1)	(100,1)	(106,1)	(95,1)	(76,2)	(90,1)	(505,1)	(-96,1)	(422,1)	(96,1)	(128,1)	
L1D -167>	(-1,37)	(1,12)	(119,2)	(363,1)	(80,1)	(177,1)	(122,1)	(199,1)	(241,1)	(63,1)	(142,1)	(-176,1)	(253,1)	(-143,1)	(76,1)	(398,1)	
L1D -166>	(167,2)	(1,6)	(-1,15)	(165,3)	(72,1)	(264,1)	(276,1)	(166,1)	(143,1)	(-10,1)	(290,1)	(158,1)	(211,1)	(-2,1)	(377,1)	(-104,1)	
L1D -165>	(1,6)	(93,1)	(-1,37)	(107,1)	(261,1)	(2,1)	(249,1)	(6,1)	(-244,1)	(123,1)	(-46,1)	(69,1)	(164,1)	(151,1)	(-134,1)	(128,1)	
L1D -164>	(165,2)	(-1,6)	(1,1)	(208,1)	(135,1)	(20,1)	(100,2)	(370,1)	(122,1)	(176,2)	(-163,1)	(151,1)	(98,1)	(-62,1)	(58,1)	(159,1)	
L1D -163>	(-1,35)	(265,1)	(1,3)	(190,1)	(298,1)	(82,1)	(138,1)	(154,1)	(-175,1)	(103,1)	(206,1)	(-16,1)	(157,1)	(200,1)	(398,1)	(219,1)	
L1D -162>	(-1,1)	(209,1)	(123,1)	(163,1)	(1,5)	(345,2)	(24,2)	(-195,1)	(278,1)	(-84,1)	(114,1)	(462,1)	(36,3)	(242,1)	(-66,1)	(207,1)	
L1D -161>	(41,1)	(1,5)	(26,1)	(-1,33)	(151,1)	(32,2)	(44,1)	(3,2)	(-214,1)	(-126,1)	(-200,1)	(231,1)	(227,1)	(290,1)	(-14,1)	(-78,1)	
L1D -160>	(-1,5)	(1,6)	(380,1)	(317,1)	(98,1)	(-178,2)	(160,1)	(-102,2)	(-20,1)	(20,1)	(200,1)	(58,2)	(4,2)	(416,1)	(162,1)	(53,1)	
L1D -159>	(1,6)	(-1,24)	(24,1)	(-142,1)	(183,1)	(319,1)	(-212,1)	(-158,1)	(-269,1)	(64,1)	(52,2)	(73,1)	(301,1)	(269,1)	(-112,1)	(20,1)	
L1D -158>	(-1,9)	(263,1)	(-166,1)	(-50,1)	(2,3)	(178,2)	(-159,1)	(4,1)	(1,3)	(-60,1)	(124,1)	(336,1)	(78,1)	(410,1)	(-78,1)	(286,1)	
L1D -157>	(1,4)	(-1,31)	(427,1)	(-261,1)	(7,1)	(-67,1)	(142,1)	(258,1)	(-2,1)	(358,1)	(82,1)	(285,1)	(56,1)	(28,1)	(220,1)	(-159,1)	
L1D -156>	(-1,7)	(-62,2)	(-2,1)	(53,1)	(422,1)	(-290,1)	(-305,1)	(96,1)	(110,1)	(-189,1)	(254,1)	(-86,1)	(-126,1)	(-21,1)	(232,1)	(313,2)	
L1D -155>	(1,7)	(-1,42)	(287,1)	(-52,1)	(371,1)	(-45,1)	(54,1)	(-169,1)	(108,2)	(331,1)	(84,1)	(2,3)	(-88,1)	(-264,1)	(90,1)	(56,1)	
L1D -154>	(-1,6)	(252,1)	(155,1)	(123,1)	(-102,2)	(107,1)	(144,1)	(180,1)	(-162,2)	(462,1)	(358,1)	(224,1)	(275,1)	(128,2)	(84,1)	(-84,1)	
L1D -153>	(1,10)	(-1,34)	(-42,1)	(-22,2)	(-14,1)	(189,1)	(-34,1)	(6,1)	(148,1)	(-6,1)	(-116,1)	(-250,1)	(-90,1)	(153,1)	(305,1)	(451,1)	
L1D -152>	(20,1)	(42,1)	(58,2)	(313,1)	(64,2)	(-39,1)	(-190,1)	(-56,1)	(146,2)	(14,1)	(33,1)	(50,1)	(174,1)	(408,1)	(206,1)	(192,2)	
L1D -151>	(-1,33)	(1,6)	(272,1)	(-110,1)	(72,1)	(204,1)	(271,1)	(48,1)	(-34,1)	(65,1)	(345,2)	(40,1)	(242,1)	(-40,1)	(178,1)	(-46,1)	
L1D -150>	(-182,2)	(-100,2)	(94,1)	(-1,11)	(420,1)	(373,1)	(24,1)	(210,1)	(-34,1)	(2,1)	(-50,1)	(313,1)	(124,1)	(-262,1)	(-254,1)	(-188,1)	
L1D -149>	(1,5)	(-1,30)	(-4,1)	(-24,1)	(-39,1)	(-9,1)	(154,1)	(106,1)	(3,2)	(90,1)	(166,1)	(149,1)	(145,1)	(246,1)	(108,1)	(437,1)	
L1D -148>	(-1,5)	(-166,1)	(422,1)	(1,6)	(72,2)	(-241,1)	(6,1)	(86,1)	(158,1)	(162,2)	(-107,1)	(185,1)	(-66,2)	(134,1)	(186,1)	(124,2)	
L1D -147>	(1,7)	(-1,45)	(121,3)	(-122,1)	(65,1)	(25,1)	(63,1)	(6,1)	(-70,1)	(275,1)	(92,1)	(-242,1)	(2,1)	(36,1)	(186,1)	(327,1)	
L1D -146>	(-1,8)	(1,6)	(106,1)	(3,9)	(181,1)	(114,1)	(131,1)	(43,1)	(28,2)	(79,1)	(66,1)	(209,1)	(-14,1)	(208,1)	(422,1)	(350,2)	
L1D -145>	(-1,35)	(1,6)	(64,1)	(407,1)	(403,1)	(289,1)	(-249,1)	(163,1)	(-254,1)	(254,1)	(160,1)	(217,1)	(24,1)	(263,1)	(2,1)	(334,1)	
L1D -144>	(26,1)	(1,6)	(229,1)	(32,2)	(46,2)	(-207,1)	(136,1)	(74,1)	(168,1)	(-56,2)	(75,1)	(140,1)	(152,1)	(304,1)	(200,3)	(106,1)	
L1D -143>	(1,7)	(-1,36)	(144,1)	(191,1)	(60,1)	(-72,1)	(312,1)	(-24,1)	(245,1)	(125,1)	(298,1)	(104,1)	(111,1)	(70,1)	(-92,1)	(189,1)	
L1D -142>	(-1,6)	(1,5)	(60,2)	(358,1)	(-20,1)	(-162,1)	(396,1)	(-38,2)	(226,2)	(234,1)	(-126,1)	(-251,1)	(5,1)	(239,1)	(178,1)	(248,1)	
L1D -141>	(-1,39)	(1,11)	(4,1)	(70,1)	(-31,1)	(64,1)	(-4,1)	(97,1)	(253,1)	(-323,1)	(274,2)	(113,1)	(397,1)	(6,1)	(-94,1)	(156,1)	
L1D -140>	(-99,1)	(1,6)	(141,2)	(241,1)	(-44,1)	(349,1)	(-62,1)	(156,1)	(4,2)	(163,1)	(26,1)	(59,1)	(-88,1)	(192,1)	(93,1)	(154,2)	
L1D -139>	(154,1)	(1,11)	(-1,43)	(62,1)	(120,1)	(238,1)	(-64,1)	(115,1)	(-54,1)	(-18,1)	(94,1)	(237,1)	(-218,1)	(228,1)	(-193,1)	(-168,1)	
L1D -138>	(-96,1)	(1,7)	(271,1)	(84,1)	(150,1)	(-1,9)	(17,1)	(138,1)	(209,1)	(-88,1)	(170,1)	(-66,2)	(-10,1)	(91,1)	(2,1)	(134,1)	
L1D -137>	(-1,31)	(1,8)	(3,1)	(318,1)	(5,1)	(95,1)	(-160,1)	(293,1)	(28,1)	(-2,2)	(329,1)	(200,2)	(139,1)	(299,1)	(120,1)	(50,1)	
L1D -136>	(-1,11)	(109,2)	(137,2)	(1,1)	(212,1)	(202,1)	(16,3)	(74,1)	(-218,1)	(34,1)	(340,1)	(-8,1)	(-14,1)	(58,1)	(-19,1)	(54,1)	
L1D -135>	(-1,36)	(1,5)	(233,1)	(146,1)	(90,1)	(46,1)	(-218,1)	(169,1)	(121,1)	(282,1)	(230,1)	(167,1)	(153,1)	(3,1)	(283,1)	(76,1)	
L1D -134>	(238,2)	(1,7)	(159,2)	(128,1)	(-16,2)	(-176,1)	(48,1)	(22,1)	(202,1)	(66,1)	(-191,1)	(25,1)	(55,1)	(-200,1)	(250,1)	(76,1)	
L1D -133>	(-1,41)	(1,7)	(131,2)	(409,1)	(-207,1)	(155,1)	(-123,1)	(112,1)	(78,1)	(171,1)	(332,1)	(-15,1)	(-82,1)	(-2,1)	(-312,1)	(-8,1)	
L1D -132>	(1,10)	(252,2)	(94,2)	(24,1)	(-88,2)	(152,1)	(168,1)	(331,1)	(-70,2)	(-319,1)	(-14,2)	(-60,1)	(12,2)	(-152,1)	(175,1)	(-44,1)	
L1D -131>	(1,14)	(145,1)	(-1,31)	(307,1)	(113,1)	(96,1)	(-204,1)	(-32,1)	(192,1)	(-342,1)	(6,1)	(2,4)	(73,2)	(160,1)	(221,1)	(-142,1)	
L1D -130>	(172,1)	(-1,6)	(1,7)	(-129,1)	(286,1)	(158,1)	(-229,1)	(96,1)	(-118,2)	(149,2)	(118,1)	(82,2)	(-70,1)	(398,1)	(289,1)	(154,1)	
L1D -129>	(-1,46)	(1,6)	(-258,1)	(81,1)	(200,1)	(107,1)	(263,1)	(281,1)	(239,1)	(446,1)	(26,1)	(180,1)	(-270,1)	(-102,1)	(-25,1)	(66,1)	
L1D -128>	(1,7)	(-295,1)	(-100,1)	(-32,2)	(280,1)	(-106,1)	(51,1)	(-1,10)	(344,1)	(288,1)	(-118,1)	(233,1)	(496,1)	(219,1)	(-122,1)	(40,2)	
L1D -127>	(1,11)	(-1,41)	(128,1)	(89,1)	(441,1)	(-166,1)	(277,1)	(-189,1)	(293,1)	(80,1)	(206,1)	(-226,1)	(14,1)	(272,1)	(4,1)	(299,1)	
L1D -126>	(154,2)	(1,5)	(76,1)	(254,2)	(-295,1)	(393,2)	(100,1)	(42,1)	(-84,1)	(126,2)	(240,2)	(132,2)	(-234,1)	(307,1)	(54,1)	(92,1)	
L1D -125>	(1,9)	(-1,35)	(186,1)	(-22,1)	(124,1)	(81,1)	(191,1)	(-242,1)	(224,1)	(-180,1)	(319,1)	(155,1)	(-258,1)	(445,1)	(125,1)	(116,1)	
L1D -124>	(137,1)	(-1,7)	(125,1)	(62,2)	(-126,1)	(-177,1)	(308,3)	(237,2)	(20,2)	(113,1)	(310,2)	(-50,2)	(-10,1)	(139,1)	(56,1)	(175,1)	
L1D -123>	(1,5)	(-72,1)	(-198,1)	(-1,35)	(195,1)	(168,1)	(179,1)	(259,1)	(-168,1)	(144,2)	(-36,1)	(-54,1)	(14,1)	(299,1)	(-192,1)	(239,1)	
L1D -122>	(-1,11)	(1,7)	(-192,1)	(52,1)	(26,1)	(-222,1)	(-38,1)	(-18,1)	(320,1)	(158,1)	(-36,1)	(72,3)	(-281,1)	(-54,1)	(210,1)	(-65,1)	
L1D -121>	(1,5)	(-1,42)	(209,1)	(129,1)	(218,1)	(174,1)	(130,1)	(-128,1)	(4,1)	(128,1)	(231,1)	(357,1)	(163,1)	(8,1)	(274,1)	(148,1)	
L1D -120>	(1,2)	(66,2)	(122,1)	(52,1)	(100,1)	(150,1)	(112,2)	(-70,1)	(8,2)	(38,1)	(90,1)	(192,1)	(-2,1)	(204,2)	(12,2)	(3,2)	
L1D -119>	(-1,34)	(1,4)	(-266,1)	(-12,2)	(337,1)	(13,1)	(179,1)	(-158,1)	(127,1)	(107,1)	(-196,1)	(135,1)	(159,1)	(-160,1)	(-267,1)	(120,1)	
L1D -118>	(66,2)	(76,1)	(0,2)	(56,1)	(364,1)	(218,1)	(14,3)	(-84,1)	(-60,1)	(146,1)	(59,1)	(-313,1)	(-32,1)	(282,1)	(433,1)	(333,2)	
L1D -117>	(1,7)	(-1,45)	(184,1)	(148,1)	(-306,1)	(193,1)	(293,1)	(62,1)	(205,1)	(346,1)	(113,1)	(-24,1)	(425,1)	(-77,1)	(-84,1)	(154,1)	
L1D -116>	(1,9)	(220,1)	(117,1)	(176,1)	(324,1)	(-96,1)	(258,1)	(76,2)	(-1,8)	(-46,1)	(-160,1)	(162,1)	(358,1)	(72,3)	(115,1)	(-112,1)	
L1D -115>	(1,8)	(-1,37)	(35,1)	(138,2)	(86,1)	(132,1)	(12,1)	(136,1)	(77,1)	(-298,1)	(-49,1)	(255,1)	(46,1)	(-84,1)	(166,1)	(-5,1)	
L1D -114>	(-1,5)	(1,7)	(141,1)	(-66,1)	(44,1)	(-6,1)	(-64,4)	(180,2)	(220,1)	(-62,2)	(94,1)	(-307,1)	(397,1)	(58,1)	(-192,1)	(74,1)	
L1D -113>	(-1,49)	(1,4)	(373,1)	(369,1)	(207,1)	(102,1)	(366,1)	(110,1)	(-102,1)	(457,1)	(262,1)	(191,1)	(99,1)	(36,1)	(404,1)	(182,1)	
L1D -112>	(-126,1)	(1,5)	(-165,1)	(-1,6)	(44,2)	(179,1)	(-28,1)	(122,2)	(4,3)	(-22,1)	(42,1)	(-202,2)	(-6,1)	(-11,1)	(56,2)	(-16,1)	
L1D -111>	(1,9)	(-1,34)	(32,1)	(247,1)	(-124,1)	(30,1)	(-22,1)	(10,1)	(112,2)	(-109,1)	(439,1)	(200,1)	(68,1)	(204,1)	(132,1)	(265,1)	
L1D -110>	(298,1)	(1,4)	(-75,1)	(-1,9)	(122,1)	(402,1)	(88,1)	(4,3)	(299,1)	(378,1)	(78,2)	(12,3)	(-111,1)	(-94,1)	(216,2)	(-156,1)	
L1D -109>	(1,7)	(110,2)	(89,1)	(-1,43)	(134,1)	(32,1)	(115,1)	(22,1)	(265,1)	(245,1)	(-226,1)	(100,1)	(59,1)	(-261,1)	(320,1)	(136,1)	
L1D -108>	(1,11)	(6,4)	(4,2)	(-310,1)	(306,1)	(341,1)	(34,1)	(172,2)	(-187,1)	(135,1)	(178,2)	(-28,1)	(-1,10)	(70,1)	(226,2)	(110,1)	
L1D -107>	(1,10)	(-1,36)	(156,1)	(91,1)	(118,1)	(-90,1)	(169,1)	(205,1)	(-22,1)	(-29,1)	(66,1)	(-210,1)	(268,1)	(7,1)	(-178,1)	(103,1)	
L1D -106>	(108,35)	(106,81)	(91,17)	(112,34)	(107,60)	(93,5)	(21,10)	(131,15)	(86,31)	(81,9)	(126,22)	(113,22)	(-1,1)	(99,16)	(104,19)	(111,19)	
L1D -105>	(180,1)	(1,12)	(-1,39)	(28,1)	(176,1)	(74,1)	(228,1)	(65,1)	(-40,1)	(241,1)	(296,1)	(8,1)	(275,1)	(255,1)	(66,1)	(-302,1)	
L1D -104>	(-1,12)	(300,1)	(182,1)	(18,1)	(141,1)	(-80,1)	(-52,1)	(-174,1)	(84,2)	(-248,1)	(28,1)	(-82,2)	(199,1)	(-196,1)	(306,1)	(304,1)	
L1D -103>	(-1,35)	(1,10)	(-68,1)	(422,1)	(40,1)	(46,1)	(160,1)	(210,1)	(99,1)	(-8,1)	(-220,1)	(190,1)	(79,1)	(-108,1)	(406,1)	(312,1)	
L1D -102>	(1,7)	(-40,1)	(80,1)	(-78,2)	(62,1)	(226,1)	(202,1)	(96,2)	(30,1)	(133,1)	(191,1)	(254,1)	(-2,2)	(-24,1)	(98,1)	(-305,1)	
L1D -101>	(-1,42)	(1,7)	(123,1)	(-32,2)	(107,1)	(-218,1)	(22,1)	(49,1)	(222,1)	(110,1)	(136,1)	(-10,1)	(-189,1)	(134,1)	(-86,1)	(-6,1)	
L1D -100>	(98,3)	(-97,1)	(95,1)	(-79,1)	(141,1)	(-1,7)	(99,3)	(186,1)	(52,2)	(26,1)	(56,1)	(-82,1)	(58,3)	(42,1)	(142,1)	(-62,2)	
L1D -99>	(-1,55)	(1,8)	(117,1)	(23,1)	(42,1)	(189,1)	(217,1)	(-30,1)	(81,1)	(182,1)	(-164,1)	(239,1)	(-290,1)	(-70,1)	(-6,1)	(4,2)	
L1D -98>	(-1,9)	(358,1)	(2,5)	(256,1)	(22,3)	(166,1)	(96,2)	(-262,1)	(-98,1)	(56,2)	(185,1)	(-275,1)	(188,1)	(124,1)	(-84,2)	(204,1)	
L1D -97>	(-1,37)	(1,7)	(2,2)	(249,1)	(244,1)	(152,1)	(221,1)	(26,1)	(132,1)	(-146,1)	(-128,1)	(-74,1)	(234,1)	(112,1)	(0,1)	(25,1)	
L1D -96>	(128,1)	(1,9)	(98,3)	(-1,13)	(97,1)	(159,1)	(445,1)	(2,4)	(-104,1)	(54,1)	(-266,1)	(-275,1)	(216,1)	(229,1)	(-130,1)	(-20,1)	
L1D -95>	(1,4)	(-1,37)	(94,1)	(-168,1)	(310,1)	(309,1)	(5,1)	(0,1)	(121,1)	(50,1)	(-66,1)	(18,1)	(48,1)	(65,1)	(157,1)	(122,1)	
L1D -94>	(-1,14)	(1,9)	(48,1)	(95,1)	(167,1)	(459,1)	(12,1)	(-88,2)	(14,1)	(-194,1)	(-275,1)	(44,1)	(322,1)	(-158,1)	(224,1)	(-32,1)	
L1D -93>	(1,8)	(260,1)	(94,2)	(-1,49)	(-130,1)	(273,1)	(308,1)	(-26,1)	(152,1)	(150,1)	(-359,1)	(350,1)	(-104,1)	(483,1)	(-320,1)	(0,1)	
L1D -92>	(1,10)	(93,3)	(285,1)	(235,1)	(0,2)	(-1,13)	(-31,1)	(180,1)	(-2,2)	(359,1)	(290,1)	(126,3)	(82,1)	(194,1)	(344,1)	(56,1)	
L1D -91>	(89,1)	(-1,48)	(92,5)	(1,10)	(-134,1)	(-117,1)	(0,4)	(333,1)	(-9,1)	(95,1)	(200,1)	(-49,1)	(-54,1)	(459,1)	(122,1)	(347,1)	
L1D -90>	(-1,11)	(1,11)	(-132,2)	(91,11)	(6,1)	(0,3)	(314,1)	(-153,1)	(302,1)	(-62,1)	(-20,1)	(-18,1)	(78,1)	(152,1)	(-24,1)	(-32,1)	
L1D -89>	(-1,39)	(1,11)	(90,9)	(3,1)	(253,1)	(213,1)	(-55,1)	(0,2)	(443,1)	(102,1)	(-46,1)	(142,1)	(94,1)	(91,1)	(-80,1)	(255,1)	
L1D -88>	(90,1)	(245,1)	(89,10)	(92,1)	(77,1)	(17,1)	(246,2)	(-4,2)	(-48,2)	(1,20)	(-52,1)	(-229,1)	(-56,1)	(264,1)	(64,2)	(-14,1)	
L1D -87>	(86,1)	(-1,45)	(1,9)	(2,3)	(88,13)	(-108,1)	(-179,1)	(-86,2)	(0,3)	(115,1)	(143,1)	(-96,1)	(89,1)	(96,1)	(179,1)	(-335,1)	
L1D -86>	(1,11)	(-1,9)	(87,16)	(2,5)	(84,2)	(-173,1)	(446,1)	(322,1)	(-32,1)	(78,2)	(126,1)	(-215,1)	(138,1)	(274,1)	(130,1)	(-57,1)	
L1D -85>	(1,7)	(-1,40)	(2,3)	(84,3)	(3,3)	(-2,2)	(86,16)	(94,1)	(85,2)	(298,1)	(44,1)	(-158,1)	(67,1)	(174,1)	(68,1)	(77,1)	
L1D -84>	(1,9)	(-10,3)	(5,3)	(112,2)	(-1,11)	(84,9)	(83,16)	(46,1)	(-40,1)	(390,1)	(-82,1)	(323,1)	(158,1)	(-38,2)	(85,16)	(82,1)	
L1D -83>	(1,12)	(-1,46)	(0,2)	(102,1)	(-59,1)	(105,1)	(-3,1)	(-104,1)	(-116,1)	(182,1)	(84,15)	(-140,1)	(86,1)	(56,1)	(100,1)	(-6,1)	
L1D -82>	(84,3)	(1,8)	(-22,1)	(94,1)	(36,1)	(-178,1)	(116,1)	(350,1)	(120,1)	(16,1)	(-56,1)	(262,1)	(357,1)	(-72,1)	(-98,1)	(374,1)	
L1D -81>	(-1,53)	(1,5)	(84,2)	(82,17)	(2,1)	(166,1)	(-224,1)	(52,2)	(289,1)	(104,1)	(196,1)	(271,1)	(294,1)	(-122,1)	(165,1)	(-107,1)	
L1D -80>	(-22,2)	(84,2)	(81,18)	(1,8)	(-74,1)	(-196,1)	(-24,1)	(52,1)	(-44,1)	(-2,1)	(312,1)	(-1,7)	(22,1)	(378,1)	(134,1)	(-56,2)	
L1D -79>	(-1,56)	(82,2)	(1,7)	(80,20)	(90,1)	(311,1)	(112,1)	(84,2)	(-267,1)	(374,1)	(-54,1)	(-60,1)	(-42,1)	(-24,1)	(6,1)	(0,5)	
L1D -78>	(79,21)	(-1,14)	(21,2)	(1,7)	(109,1)	(-44,3)	(180,1)	(-162,1)	(124,1)	(-236,2)	(248,1)	(240,1)	(182,1)	(22,3)	(67,1)	(-78,1)	
L1D -77>	(-1,39)	(1,7)	(78,21)	(-362,1)	(87,1)	(-67,1)	(19,1)	(248,1)	(160,1)	(-72,1)	(-42,1)	(172,1)	(-178,1)	(86,1)	(114,1)	(-143,1)	
L1D -76>	(77,22)	(-1,15)	(-18,1)	(226,1)	(-123,1)	(-230,1)	(1,4)	(190,1)	(-62,1)	(96,1)	(68,1)	(-224,1)	(178,1)	(79,1)	(32,2)	(97,1)	
L1D -75>	(-1,50)	(255,1)	(76,23)	(123,1)	(1,7)	(-289,1)	(88,1)	(4,1)	(-204,1)	(-4,1)	(79,1)	(-16,1)	(-116,1)	(77,1)	(-218,1)	(-56,1)	
L1D -74>	(8,9)	(75,28)	(1,5)	(42,1)	(-1,8)	(74,1)	(298,1)	(-16,2)	(164,2)	(230,1)	(-48,1)	(-294,1)	(227,1)	(-26,1)	(0,4)	(195,1)	
L1D -73>	(-1,47)	(1,4)	(74,30)	(134,1)	(94,1)	(221,1)	(219,1)	(216,1)	(220,1)	(85,1)	(160,1)	(101,1)	(-120,1)	(163,1)	(-180,1)	(229,1)	
L1D -72>	(73,30)	(-1,16)	(-198,1)	(336,1)	(-22,2)	(52,1)	(198,1)	(4,1)	(-36,1)	(-162,2)	(330,1)	(175,1)	(-151,1)	(134,1)	(-130,1)	(-204,1)	
L1D -71>	(-1,48)	(1,7)	(72,31)	(-12,1)	(-165,1)	(502,1)	(405,1)	(-106,1)	(73,1)	(295,1)	(89,1)	(169,1)	(-34,1)	(284,1)	(-7,1)	(315,1)	
L1D -70>	(71,34)	(151,1)	(-1,18)	(1,9)	(114,2)	(372,1)	(180,1)	(14,1)	(127,1)	(246,1)	(-160,2)	(340,1)	(78,4)	(336,1)	(60,1)	(16,2)	
L1D -69>	(1,5)	(70,32)	(-1,53)	(60,1)	(38,1)	(4,1)	(156,1)	(-347,1)	(413,1)	(-68,1)	(232,1)	(150,1)	(463,1)	(77,1)	(304,1)	(122,1)	
L1D -68>	(69,32)	(-1,4)	(174,1)	(164,1)	(32,2)	(-28,1)	(-151,1)	(60,1)	(1,8)	(207,1)	(-330,1)	(108,1)	(24,2)	(82,2)	(-106,1)	(-16,2)	
L1D -67>	(1,11)	(-1,55)	(68,32)	(105,1)	(-70,1)	(425,1)	(-357,1)	(217,1)	(-40,1)	(155,1)	(138,1)	(316,1)	(470,1)	(-129,1)	(46,1)	(-350,1)	
L1D -66>	(1,5)	(146,1)	(67,32)	(-1,11)	(18,1)	(122,1)	(262,1)	(44,1)	(470,1)	(-248,1)	(326,1)	(-353,1)	(-60,2)	(112,2)	(366,1)	(186,1)	
L1D -65>	(-1,52)	(1,14)	(66,32)	(181,1)	(-274,1)	(-86,1)	(136,1)	(328,1)	(-313,1)	(-81,1)	(263,2)	(182,1)	(-158,1)	(166,1)	(0,1)	(-228,1)	
L1D -64>	(4,22)	(200,1)	(5,75)	(65,2)	(30,1)	(250,1)	(183,0)	(8,10)	(6,5)	(146,0)	(-112,0)	(-6,0)	(114,0)	(42,0)	(-1,0)	(-128,0)	
L1D -63>	(-1,44)	(64,32)	(1,11)	(56,1)	(302,1)	(335,1)	(184,1)	(140,1)	(68,1)	(356,1)	(-214,1)	(2,1)	(386,1)	(-70,2)	(117,1)	(-172,1)	
L1D -62>	(63,32)	(1,5)	(-1,13)	(-42,2)	(31,3)	(342,1)	(-195,2)	(-60,1)	(50,1)	(229,1)	(308,1)	(298,1)	(-14,1)	(86,1)	(62,1)	(174,1)	
L1D -61>	(-1,43)	(62,33)	(1,7)	(38,1)	(28,1)	(-12,1)	(152,1)	(-354,1)	(30,1)	(207,1)	(-38,1)	(122,1)	(378,1)	(265,1)	(266,1)	(-51,1)	
L1D -60>	(1,68)	(-4,5)	(-215,0)	(-18,0)	(-1,0)	(-256,0)	(61,0)	(120,0)	(1,0)	(1,0)	(1,0)	(1,0)	(1,0)	(1,0)	(1,0)	(1,0)	
L1D -59>	(-1,10)	(1,127)	(60,8)	(145,1)	(64,1)	(-206,0)	(15,0)	(86,0)	(321,0)	(299,0)	(106,0)	(1,0)	(1,0)	(1,0)	(1,0)	(1,0)	
L1D -58>	(2,124)	(374,1)	(-155,0)	(-6,0)	(-206,0)	(59,1)	(38,0)	(1,0)	(1,0)	(1,0)	(1,0)	(1,0)	(1,0)	(1,0)	(1,0)	(1,0)	
L1D -57>	(-1,51)	(57,2)	(1,9)	(58,32)	(-370,1)	(-316,1)	(261,1)	(86,1)	(352,1)	(77,1)	(-72,1)	(-2,1)	(-200,1)	(-24,1)	(8,1)	(-283,1)	
L1D -56>	(-113,0)	(57,0)	(-254,0)	(7,0)	(0,0)	(16,70)	(-8,16)	(46,0)	(-17,0)	(42,0)	(85,0)	(1,0)	(1,0)	(1,0)	(1,0)	(1,0)	
L1D -55>	(-1,48)	(1,6)	(56,32)	(-12,1)	(-70,1)	(146,2)	(92,1)	(6,1)	(71,1)	(91,1)	(2,1)	(10,1)	(38,1)	(0,13)	(46,1)	(231,1)	
L1D -54>	(14,114)	(1,5)	(55,34)	(-64,1)	(-286,1)	(-1,17)	(-28,3)	(222,1)	(220,1)	(-370,1)	(-195,1)	(-324,1)	(148,2)	(46,1)	(42,1)	(237,1)	
L1D -53>	(-1,50)	(1,9)	(54,32)	(-106,2)	(215,1)	(38,3)	(-26,2)	(102,1)	(-80,1)	(421,1)	(46,1)	(3,1)	(-44,1)	(148,1)	(-10,1)	(101,1)	
L1D -52>	(-1,9)	(53,32)	(26,1)	(328,2)	(-148,1)	(-174,1)	(-40,2)	(-16,1)	(82,2)	(170,1)	(248,1)	(317,1)	(70,1)	(-69,1)	(48,1)	(52,2)	
L1D -51>	(1,5)	(-1,46)	(267,1)	(52,32)	(349,1)	(182,1)	(-395,1)	(6,1)	(-64,1)	(24,1)	(82,1)	(-4,1)	(159,1)	(44,1)	(-104,1)	(7,1)	
L1D -50>	(1,14)	(132,1)	(51,33)	(78,1)	(91,1)	(8,2)	(-1,9)	(242,2)	(-292,1)	(-50,1)	(144,2)	(56,1)	(-56,1)	(31,1)	(42,1)	(-168,1)	
L1D -49>	(-1,45)	(1,5)	(50,32)	(20,3)	(-47,2)	(274,1)	(-50,1)	(425,1)	(-182,1)	(190,1)	(-100,1)	(-110,1)	(-230,1)	(240,1)	(217,1)	(-268,1)	
L1D -48>	(122,2)	(8,2)	(1,7)	(49,32)	(-198,1)	(68,1)	(-16,1)	(44,1)	(62,1)	(306,2)	(-396,1)	(-180,1)	(134,1)	(-286,1)	(170,2)	(-1,11)	
L1D -47>	(-1,47)	(-13,73)	(-11,20)	(1,2)	(-15,3)	(48,30)	(-12,2)	(-17,2)	(104,2)	(102,1)	(-218,1)	(110,1)	(146,1)	(136,1)	(-121,1)	(-18,1)	
L1D -46>	(1,9)	(10,17)	(47,32)	(-1,7)	(42,1)	(257,1)	(250,1)	(200,1)	(-30,1)	(-12,2)	(78,2)	(354,1)	(-142,2)	(-2,2)	(204,1)	(-138,2)	
L1D -45>	(-1,47)	(172,1)	(1,15)	(46,32)	(81,1)	(34,1)	(-77,1)	(-162,1)	(-105,1)	(313,1)	(-92,1)	(199,1)	(230,1)	(93,1)	(-160,1)	(-252,2)	
L1D -44>	(43,32)	(45,34)	(1,9)	(-1,12)	(-212,1)	(178,1)	(-244,1)	(2,2)	(-44,1)	(-138,1)	(-141,1)	(423,1)	(-88,1)	(92,2)	(6,2)	(494,1)	
L1D -43>	(1,17)	(-1,54)	(44,33)	(100,1)	(-58,1)	(236,2)	(-54,1)	(-201,1)	(-56,1)	(-260,1)	(-116,1)	(-110,1)	(30,1)	(-393,1)	(-227,1)	(221,1)	
L1D -42>	(-78,2)	(43,35)	(1,8)	(9,3)	(-1,7)	(422,1)	(-175,1)	(-100,2)	(-14,1)	(46,2)	(-257,1)	(-201,2)	(248,1)	(116,1)	(222,1)	(-80,1)	
L1D -41>	(-1,61)	(1,11)	(42,32)	(-26,1)	(-104,1)	(155,1)	(-8,1)	(2,3)	(-96,1)	(-168,1)	(-174,1)	(-304,1)	(117,1)	(286,1)	(218,1)	(-374,1)	
L1D -40>	(27,44)	(5,79)	(-24,11)	(78,0)	(25,4)	(40,15)	(-295,0)	(41,0)	(378,0)	(1,0)	(1,0)	(1,0)	(1,0)	(1,0)	(1,0)	(1,0)	
L1D -39>	(1,7)	(40,33)	(-1,40)	(37,3)	(268,1)	(94,1)	(147,1)	(67,1)	(29,1)	(66,1)	(-134,1)	(80,1)	(2,2)	(-74,1)	(118,1)	(-258,1)	
L1D -38>	(-1,15)	(4,4)	(1,9)	(39,32)	(20,1)	(-116,1)	(-106,2)	(-84,1)	(-73,2)	(152,1)	(-273,1)	(-18,1)	(391,1)	(117,1)	(-163,1)	(174,2)	
L1D -37>	(1,11)	(-1,59)	(38,32)	(39,2)	(244,1)	(-142,1)	(456,1)	(28,1)	(-82,1)	(5,1)	(193,1)	(222,1)	(40,1)	(395,1)	(-408,1)	(96,1)	
L1D -36>	(-1,10)	(37,32)	(1,7)	(-50,1)	(182,1)	(-306,2)	(-245,1)	(-28,1)	(-176,1)	(-288,1)	(10,3)	(4,2)	(40,1)	(2,1)	(34,1)	(-16,1)	
L1D -35>	(-5,26)	(24,68)	(62,0)	(385,0)	(-1,0)	(52,0)	(21,5)	(36,0)	(0,0)	(1,0)	(1,0)	(1,0)	(1,0)	(1,0)	(1,0)	(1,0)	
L1D -34>	(1,26)	(35,33)	(-1,2)	(-34,2)	(-124,1)	(56,1)	(264,1)	(-228,1)	(-95,1)	(-33,1)	(72,1)	(0,2)	(-318,1)	(279,1)	(2,3)	(-142,1)	
L1D -33>	(1,76)	(12,1)	(-1,41)	(-79,1)	(34,29)	(417,1)	(-16,1)	(14,7)	(-116,1)	(16,1)	(-224,1)	(-26,1)	(-88,1)	(2,1)	(-323,1)	(134,1)	
L1D -32>	(2,116)	(-366,1)	(284,1)	(-5,0)	(33,0)	(-26,0)	(66,0)	(1,0)	(1,0)	(1,0)	(1,0)	(1,0)	(1,0)	(1,0)	(1,0)	(1,0)	
L1D -31>	(1,9)	(-1,47)	(32,32)	(72,1)	(-160,1)	(-382,1)	(-209,1)	(37,1)	(-103,1)	(-216,1)	(-171,1)	(2,1)	(-226,1)	(16,1)	(36,1)	(-114,1)	
L1D -30>	(9,3)	(-10,2)	(43,3)	(31,32)	(10,2)	(1,12)	(-1,14)	(14,3)	(130,1)	(16,47)	(26,2)	(142,1)	(68,3)	(167,1)	(-26,2)	(188,1)	
L1D -29>	(16,0)	(34,0)	(-1,0)	(6,0)	(115,0)	(28,0)	(30,0)	(25,90)	(-130,0)	(-31,0)	(40,0)	(43,0)	(1,0)	(1,0)	(1,0)	(1,0)	
L1D -28>	(25,20)	(2,123)	(-1,4)	(14,31)	(20,2)	(-394,1)	(105,1)	(16,89)	(158,1)	(29,11)	(272,1)	(311,1)	(166,1)	(102,1)	(94,1)	(300,1)	
L1D -27>	(5,99)	(-29,1)	(40,32)	(-124,0)	(-24,0)	(14,2)	(-1,3)	(28,3)	(-13,29)	(-27,1)	(-110,0)	(-153,0)	(1,1)	(1,0)	(1,0)	(1,0)	
L1D -26>	(0,2)	(-54,0)	(25,69)	(-94,0)	(-30,0)	(-32,19)	(-14,11)	(2,0)	(-1,0)	(40,4)	(27,10)	(8,0)	(1,0)	(1,0)	(1,0)	(1,0)	
L1D -25>	(40,80)	(7,6)	(27,51)	(0,16)	(5,8)	(26,0)	(-36,0)	(10,0)	(28,0)	(1,0)	(1,0)	(1,0)	(1,0)	(1,0)	(1,0)	(1,0)	
L1D -24>	(17,83)	(32,0)	(48,0)	(-4,0)	(1,0)	(1,0)	(1,0)	(1,0)	(1,0)	(1,0)	(1,0)	(1,0)	(1,0)	(1,0)	(1,0)	(1,0)	
L1D -23>	(342,0)	(-1,0)	(10,0)	(24,0)	(1,0)	(2,4)	(4,7)	(21,4)	(20,77)	(9,72)	(11,16)	(13,10)	(1,0)	(1,0)	(1,0)	(1,0)	
L1D -22>	(21,27)	(14,1)	(24,115)	(-140,1)	(-62,1)	(114,1)	(-331,1)	(23,2)	(-11,0)	(-5,0)	(-152,0)	(104,0)	(-34,0)	(-1,0)	(172,0)	(46,0)	
L1D -21>	(1,4)	(-1,58)	(-13,5)	(-7,2)	(24,3)	(-42,2)	(22,32)	(10,29)	(-118,1)	(-58,1)	(25,1)	(106,1)	(66,1)	(-124,1)	(114,1)	(179,1)	
L1D -20>	(0,108)	(-106,0)	(20,3)	(24,11)	(252,0)	(265,0)	(21,0)	(1,0)	(1,0)	(1,0)	(1,0)	(1,0)	(1,0)	(1,0)	(1,0)	(1,0)	
L1D -19>	(28,84)	(13,6)	(-12,0)	(7,3)	(35,4)	(3,0)	(0,1)	(20,0)	(-1,0)	(1,0)	(1,0)	(1,0)	(1,0)	(1,0)	(1,0)	(1,0)	
L1D -18>	(-10,3)	(11,70)	(-1,1)	(222,0)	(-6,2)	(19,0)	(1,0)	(1,0)	(1,0)	(1,0)	(1,0)	(1,0)	(1,0)	(1,0)	(1,0)	(1,0)	
L1D -17>	(13,44)	(16,1)	(-2,17)	(14,75)	(7,3)	(-252,0)	(239,0)	(35,7)	(-1,0)	(-6,1)	(15,0)	(-82,0)	(18,0)	(1,0)	(1,0)	(1,0)	
L1D -16>	(14,78)	(-63,0)	(-152,0)	(-3,1)	(-14,0)	(2,0)	(17,0)	(1,0)	(1,0)	(1,0)	(1,0)	(1,0)	(1,0)	(1,0)	(1,0)	(1,0)	
L1D -15>	(-25,59)	(-3,0)	(15,74)	(-106,0)	(2,6)	(124,0)	(16,1)	(-20,85)	(-1,0)	(-238,0)	(60,0)	(1,0)	(1,0)	(1,0)	(1,0)	(1,0)	
L1D -14>	(-24,72)	(-152,1)	(377,0)	(32,0)	(-47,0)	(94,0)	(11,38)	(4,3)	(100,0)	(331,0)	(-26,0)	(15,0)	(1,0)	(-54,0)	(8,0)	(1,0)	
L1D -13>	(13,103)	(11,3)	(2,14)	(-24,6)	(-27,12)	(1,24)	(-1,1)	(-22,2)	(22,0)	(9,0)	(172,0)	(1,0)	(1,0)	(1,0)	(1,0)	(1,0)	
L1D -12>	(1,21)	(11,91)	(-107,1)	(28,18)	(-29,0)	(34,0)	(-30,0)	(100,0)	(-146,0)	(84,0)	(43,0)	(-212,0)	(13,1)	(98,0)	(39,0)	(95,0)	
L1D -11>	(2,89)	(14,4)	(-8,0)	(18,0)	(-1,0)	(12,0)	(1,0)	(1,0)	(1,0)	(1,0)	(1,0)	(1,0)	(1,0)	(1,0)	(1,0)	(1,0)	
L1D -10>	(2,65)	(-108,1)	(15,13)	(-13,27)	(26,0)	(-3,44)	(4,20)	(-4,5)	(-338,0)	(13,2)	(319,0)	(10,1)	(1,1)	(-99,0)	(11,0)	(336,0)	
L1D -9>	(-7,114)	(297,1)	(-1,0)	(7,8)	(244,0)	(10,0)	(-5,0)	(1,0)	(8,1)	(1,0)	(1,0)	(1,0)	(1,0)	(1,0)	(1,0)	(1,0)	
L1D -8>	(9,2)	(24,84)	(-56,1)	(10,61)	(246,1)	(15,1)	(135,1)	(13,2)	(-192,1)	(-389,1)	(-38,0)	(-127,0)	(60,0)	(320,0)	(-10,0)	(375,0)	
L1D -7>	(0,0)	(14,20)	(-99,0)	(8,0)	(371,0)	(-3,100)	(-1,0)	(1,0)	(-11,41)	(1,0)	(1,0)	(1,0)	(1,0)	(1,0)	(1,0)	(1,0)	
L1D -6>	(17,21)	(28,107)	(-6,26)	(8,26)	(75,1)	(21,3)	(0,0)	(7,0)	(62,0)	(-104,0)	(5,0)	(1,0)	(1,0)	(1,0)	(1,0)	(1,0)	
L1D -5>	(6,48)	(4,2)	(-12,0)	(29,0)	(26,82)	(-1,1)	(276,0)	(2,4)	(5,0)	(-78,0)	(11,3)	(267,0)	(25,0)	(-106,0)	(1,1)	(1,0)	
L1D -4>	(1,35)	(-1,76)	(5,17)	(-6,2)	(-4,1)	(11,7)	(-82,1)	(3,7)	(-25,1)	(4,3)	(-90,0)	(2,1)	(0,0)	(-48,0)	(-99,0)	(12,0)	
L1D -3>	(1,5)	(4,108)	(-26,81)	(14,11)	(-10,6)	(0,6)	(-3,13)	(-2,54)	(5,12)	(2,46)	(55,0)	(35,70)	(-1,0)	(11,3)	(13,0)	(86,0)	
L1D -2>	(-26,4)	(2,122)	(4,77)	(28,8)	(1,12)	(7,0)	(15,3)	(-42,0)	(11,0)	(3,0)	(-220,0)	(-6,0)	(112,0)	(195,0)	(0,0)	(-107,0)	
L1D -1>	(4,61)	(7,1)	(2,69)	(28,1)	(1,20)	(-205,1)	(43,1)	(-13,1)	(-1,65)	(292,1)	(91,1)	(3,2)	(-126,0)	(-155,0)	(5,1)	(49,0)	
L1D 0>	(0,101)	(40,0)	(20,21)	(1,35)	(-40,3)	(4,0)	(2,1)	(-35,1)	(25,0)	(27,0)	(-13,0)	(3,0)	(7,0)	(-1,0)	(6,0)	(-2,1)	
L1D 1>	(372,0)	(2,20)	(1,77)	(-2,2)	(-5,0)	(-35,0)	(-199,0)	(-353,0)	(-6,0)	(0,35)	(-1,4)	(-511,0)	(4,1)	(3,1)	(-3,1)	(13,0)	
L1D 2>	(16,67)	(3,10)	(2,6)	(4,8)	(14,10)	(-16,126)	(-8,3)	(-2,106)	(-1,103)	(0,9)	(1,82)	(6,123)	(9,0)	(18,10)	(-3,48)	(-4,2)	
L1D 3>	(-4,27)	(1,35)	(0,0)	(-29,57)	(4,15)	(2,36)	(-1,20)	(6,0)	(84,0)	(3,89)	(-2,3)	(24,0)	(-3,1)	(-5,1)	(-511,1)	(-40,0)	
L1D 4>	(27,2)	(2,1)	(-3,102)	(1,9)	(-1,50)	(-12,1)	(14,5)	(-481,0)	(-19,6)	(16,1)	(0,0)	(-16,1)	(18,0)	(3,2)	(-4,0)	(-96,0)	
L1D 5>	(-18,8)	(24,98)	(-4,5)	(-3,25)	(23,6)	(18,0)	(21,14)	(1,13)	(-28,3)	(3,0)	(106,0)	(94,0)	(-15,0)	(6,1)	(7,0)	(1,0)	
L1D 6>	(2,5)	(27,101)	(136,0)	(11,0)	(-6,0)	(-70,0)	(0,0)	(-63,0)	(37,0)	(6,0)	(-5,0)	(-3,0)	(1,0)	(1,0)	(1,0)	(1,0)	
L1D 7>	(4,3)	(-12,94)	(-17,12)	(28,67)	(11,56)	(-1,34)	(-9,12)	(111,1)	(1,11)	(8,1)	(2,4)	(0,0)	(-84,1)	(-7,2)	(47,0)	(10,0)	
L1D 8>	(-13,11)	(2,4)	(1,4)	(7,1)	(245,0)	(24,0)	(-8,2)	(-150,0)	(16,81)	(3,0)	(0,2)	(-122,0)	(181,0)	(140,0)	(-12,0)	(19,3)	
L1D 9>	(-10,0)	(5,1)	(-1,0)	(48,0)	(9,0)	(-19,0)	(10,0)	(28,0)	(-9,0)	(1,0)	(-26,62)	(7,0)	(11,116)	(-58,12)	(-27,0)	(3,0)	
L1D 10>	(-174,1)	(1,10)	(-10,7)	(5,33)	(-19,9)	(-17,1)	(2,2)	(14,79)	(22,1)	(-14,32)	(23,1)	(-1,10)	(66,19)	(28,3)	(11,3)	(0,4)	
L1D 11>	(11,66)	(9,34)	(-17,6)	(-10,12)	(-23,84)	(-19,60)	(-319,0)	(44,0)	(-7,12)	(5,1)	(-18,1)	(1,0)	(-21,0)	(1,0)	(1,0)	(1,0)	
L1D 12>	(1,17)	(-12,11)	(2,15)	(-23,1)	(10,127)	(-85,1)	(-94,1)	(-162,1)	(-1,4)	(-42,1)	(-190,1)	(274,1)	(150,1)	(-322,1)	(-74,7)	(216,1)	
L1D 13>	(-6,38)	(-40,102)	(-1,1)	(0,58)	(22,19)	(-11,12)	(-35,30)	(2,1)	(-15,33)	(3,6)	(-26,0)	(7,1)	(12,3)	(-4,0)	(-2,0)	(-46,0)	
L1D 14>	(4,10)	(-17,15)	(2,80)	(-14,0)	(1,0)	(11,23)	(16,0)	(279,0)	(-40,7)	(-7,2)	(-111,0)	(-24,0)	(26,0)	(-38,0)	(-34,0)	(-28,0)	
L1D 15>	(193,0)	(-18,8)	(-40,82)	(-35,12)	(10,0)	(-15,0)	(-1,1)	(-13,1)	(-12,1)	(76,0)	(39,0)	(2,0)	(1,1)	(1,0)	(1,0)	(1,0)	
L1D 16>	(-7,21)	(-305,0)	(78,0)	(-24,72)	(-44,0)	(-100,0)	(-17,4)	(-14,0)	(2,0)	(4,0)	(-2,0)	(3,0)	(1,0)	(1,0)	(1,0)	(1,0)	
L1D 17>	(5,4)	(-11,94)	(-17,0)	(-12,4)	(-23,0)	(-127,0)	(-7,0)	(-13,9)	(10,0)	(11,0)	(1,0)	(1,0)	(1,0)	(1,0)	(1,0)	(1,0)	
L1D 18>	(370,1)	(10,1)	(-18,2)	(1,1)	(-6,89)	(-19,38)	(-12,26)	(16,2)	(-9,1)	(62,1)	(2,1)	(-1,1)	(-70,0)	(-62,0)	(84,0)	(72,0)	
L1D 19>	(1,73)	(-1,84)	(10,9)	(-19,32)	(-146,1)	(391,1)	(44,1)	(269,1)	(-231,1)	(-198,1)	(-272,1)	(2,14)	(129,1)	(3,2)	(206,1)	(-258,1)	
L1D 20>	(-20,66)	(-9,37)	(133,0)	(-270,0)	(154,0)	(139,0)	(1,0)	(1,0)	(1,0)	(1,0)	(1,0)	(1,0)	(1,0)	(1,0)	(1,0)	(1,0)	
L1D 21>	(-12,57)	(-20,0)	(3,51)	(85,25)	(-26,79)	(231,0)	(-21,1)	(-1,1)	(101,0)	(199,0)	(2,0)	(12,0)	(1,0)	(1,0)	(1,0)	(1,0)	
L1D 22>	(-1,4)	(-22,3)	(-175,1)	(-490,1)	(-17,9)	(-23,97)	(-19,1)	(2,1)	(-3,43)	(-14,20)	(-10,22)	(9,8)	(1,1)	(28,0)	(206,0)	(200,0)	
L1D 23>	(1,44)	(-226,1)	(-2,113)	(-1,8)	(-23,6)	(-269,1)	(64,1)	(-74,1)	(33,0)	(-30,0)	(44,1)	(13,3)	(356,0)	(1,0)	(1,0)	(1,0)	
L1D 24>	(-326,0)	(-7,4)	(-3,97)	(-4,0)	(-1,1)	(-24,0)	(-83,0)	(1,0)	(1,0)	(1,0)	(1,0)	(1,0)	(1,0)	(1,0)	(1,0)	(1,0)	
L1D 25>	(15,14)	(-25,78)	(-37,1)	(-20,1)	(-1,0)	(2,0)	(-180,0)	(1,0)	(1,0)	(1,0)	(1,0)	(1,0)	(1,0)	(1,0)	(1,0)	(1,0)	
L1D 26>	(-178,1)	(-82,1)	(-23,1)	(-281,0)	(-26,18)	(121,0)	(-22,0)	(-1,0)	(-24,0)	(3,85)	(-306,0)	(152,0)	(-340,0)	(2,0)	(281,0)	(126,0)	
L1D 27>	(331,0)	(-25,1)	(13,36)	(-18,66)	(-2,1)	(-1,0)	(-27,1)	(-22,4)	(51,0)	(1,0)	(1,0)	(1,0)	(1,0)	(1,0)	(1,0)	(1,0)	
L1D 28>	(-17,125)	(-60,115)	(-64,32)	(-3,6)	(-26,20)	(-14,4)	(-40,37)	(-80,1)	(-138,1)	(-58,63)	(-27,4)	(-56,107)	(1,0)	(-59,10)	(-178,0)	(260,0)	
L1D 29>	(-3,54)	(-1,66)	(98,1)	(1,4)	(-29,25)	(-54,1)	(-106,6)	(-22,1)	(-202,1)	(-308,1)	(78,1)	(-2,1)	(-82,1)	(49,1)	(-488,1)	(213,0)	
L1D 30>	(-22,111)	(-30,37)	(-35,3)	(-21,6)	(-1,17)	(-106,26)	(10,47)	(4,3)	(3,8)	(1,14)	(2,4)	(-190,1)	(22,1)	(322,1)	(18,2)	(-305,2)	
L1D 31>	(-17,66)	(-1,78)	(1,23)	(6,6)	(-26,2)	(-31,32)	(4,3)	(-190,1)	(2,10)	(140,1)	(22,2)	(-6,1)	(-53,2)	(66,1)	(-188,1)	(10,5)	
L1D 32>	(1,8)	(-32,32)	(4,4)	(18,1)	(-35,1)	(56,2)	(-44,2)	(-120,2)	(3,7)	(-99,1)	(-241,1)	(75,1)	(120,1)	(-49,1)	(142,1)	(303,1)	
L1D 33>	(-162,1)	(1,10)	(-1,58)	(-33,32)	(-34,2)	(214,1)	(158,1)	(-26,1)	(3,5)	(13,5)	(-99,1)	(88,2)	(-204,1)	(2,1)	(-205,1)	(-392,1)	
L1D 34>	(315,1)	(-1,25)	(1,15)	(-34,33)	(2,26)	(-180,1)	(22,3)	(-95,1)	(-436,1)	(-106,9)	(66,3)	(-44,1)	(-81,1)	(270,1)	(24,2)	(78,1)	
L1D 35>	(-283,0)	(-1,1)	(-86,0)	(-14,4)	(-35,0)	(198,0)	(10,2)	(-3,0)	(-43,0)	(-124,0)	(-23,109)	(-9,11)	(-17,11)	(-2,0)	(-10,0)	(1,0)	
L1D 36>	(183,1)	(-36,32)	(-1,10)	(-152,2)	(124,1)	(78,1)	(-80,1)	(-256,2)	(66,2)	(-60,2)	(147,1)	(296,1)	(-76,1)	(186,2)	(-108,3)	(-44,1)	
L1D 37>	(-1,87)	(1,16)	(-37,32)	(2,7)	(10,5)	(-132,4)	(11,1)	(136,1)	(64,1)	(-262,1)	(-42,3)	(212,1)	(94,1)	(-12,1)	(42,1)	(-157,1)	
L1D 38>	(-1,14)	(1,7)	(62,5)	(-38,33)	(43,12)	(42,8)	(2,6)	(206,1)	(140,1)	(194,1)	(48,11)	(177,1)	(-190,3)	(0,1)	(-69,1)	(34,1)	
L1D 39>	(1,8)	(-1,49)	(0,2)	(-39,32)	(-386,1)	(-95,1)	(3,2)	(144,1)	(336,1)	(-247,1)	(-430,1)	(-6,1)	(343,1)	(2,1)	(-345,1)	(-40,1)	
L1D 40>	(-15,13)	(-40,9)	(-13,72)	(0,27)	(-35,24)	(313,0)	(-114,0)	(-110,0)	(-30,0)	(-85,0)	(1,0)	(1,0)	(1,0)	(1,0)	(1,0)	(1,0)	
L1D 41>	(-106,9)	(1,7)	(-1,46)	(-117,1)	(-41,34)	(64,1)	(-89,1)	(50,2)	(-260,1)	(-456,1)	(-20,1)	(347,1)	(-402,1)	(-42,2)	(94,1)	(8,1)	
L1D 42>	(13,11)	(-42,33)	(1,13)	(6,2)	(-106,9)	(-1,13)	(-150,2)	(294,1)	(94,1)	(266,1)	(74,1)	(52,2)	(122,1)	(-74,3)	(36,1)	(56,2)	
L1D 43>	(-1,84)	(1,43)	(2,36)	(-43,32)	(-60,3)	(-106,15)	(-42,3)	(0,2)	(-58,18)	(16,1)	(5,2)	(-77,1)	(3,3)	(-20,1)	(-99,1)	(-192,1)	
L1D 44>	(-44,33)	(1,10)	(14,2)	(-484,1)	(80,1)	(-1,14)	(-114,1)	(-74,1)	(-308,1)	(416,1)	(-36,2)	(-96,2)	(-150,1)	(169,1)	(320,1)	(189,1)	
L1D 45>	(-1,57)	(1,20)	(-45,32)	(-44,1)	(-23,1)	(167,1)	(20,1)	(43,1)	(48,1)	(-88,1)	(353,1)	(319,1)	(-183,1)	(64,1)	(-96,1)	(-42,2)	
L1D 46>	(-46,34)	(-1,14)	(1,5)	(-110,2)	(-8,1)	(-2,3)	(158,2)	(268,1)	(32,1)	(-62,1)	(168,1)	(-148,1)	(-188,1)	(-4,2)	(-133,1)	(-162,1)	
L1D 47>	(-2,3)	(1,14)	(437,1)	(-1,55)	(-47,32)	(-106,9)	(66,1)	(32,1)	(-156,1)	(302,1)	(185,1)	(-126,1)	(14,1)	(106,1)	(108,1)	(-119,1)	
L1D 48>	(-48,32)	(-16,1)	(-1,12)	(1,12)	(-106,10)	(88,1)	(178,1)	(176,1)	(150,1)	(-4,1)	(72,2)	(139,1)	(-307,1)	(-138,2)	(-172,1)	(4,1)	
L1D 49>	(-106,5)	(1,14)	(-1,43)	(-49,32)	(260,1)	(-191,1)	(73,1)	(138,1)	(279,1)	(2,5)	(-34,1)	(194,1)	(134,1)	(-32,1)	(211,1)	(384,1)	
L1D 50>	(-1,11)	(1,9)	(-50,36)	(241,1)	(96,1)	(-342,1)	(114,1)	(-84,2)	(18,2)	(-316,1)	(444,1)	(-132,1)	(-184,1)	(35,1)	(-393,1)	(165,2)	
L1D 51>	(1,18)	(228,1)	(43,1)	(-51,33)	(-1,49)	(233,1)	(-202,1)	(-100,1)	(13,1)	(122,1)	(-106,3)	(-38,1)	(42,1)	(54,1)	(-284,1)	(44,2)	
L1D 52>	(49,5)	(-52,33)	(1,11)	(-1,16)	(168,2)	(8,2)	(-70,2)	(401,1)	(98,1)	(72,1)	(86,4)	(193,1)	(-422,1)	(-356,1)	(-156,1)	(20,2)	
L1D 53>	(1,5)	(-1,43)	(-53,32)	(-170,1)	(0,4)	(70,1)	(332,1)	(-246,1)	(62,1)	(-470,1)	(30,1)	(40,1)	(-163,1)	(193,1)	(-66,1)	(-271,1)	
L1D 54>	(-1,20)	(-54,32)	(76,1)	(-229,1)	(176,1)	(68,1)	(-191,1)	(-112,1)	(1,6)	(-318,1)	(296,1)	(78,1)	(284,1)	(210,1)	(144,1)	(180,1)	
L1D 55>	(1,9)	(-1,56)	(-55,32)	(-56,1)	(2,14)	(195,1)	(-41,1)	(50,1)	(-212,1)	(24,1)	(398,1)	(-40,1)	(274,1)	(-71,1)	(-110,1)	(198,1)	
L1D 56>	(-1,16)	(-56,32)	(1,10)	(142,1)	(54,1)	(-208,1)	(63,1)	(-182,1)	(313,1)	(42,1)	(-36,1)	(10,1)	(-92,1)	(-71,1)	(3,4)	(213,1)	
L1D 57>	(1,12)	(-1,52)	(-57,32)	(168,2)	(150,1)	(-219,1)	(3,2)	(133,1)	(-194,1)	(287,1)	(187,1)	(354,1)	(-106,2)	(54,2)	(-187,1)	(-213,1)	
L1D 58>	(1,8)	(-58,32)	(-57,3)	(-1,11)	(-225,1)	(-292,1)	(-72,3)	(-145,1)	(-122,1)	(-86,2)	(-76,1)	(88,1)	(185,1)	(-132,1)	(296,1)	(-117,1)	
L1D 59>	(1,10)	(-1,53)	(-59,32)	(-356,1)	(112,1)	(104,1)	(154,1)	(-86,1)	(-313,1)	(-96,2)	(-22,1)	(-84,1)	(325,1)	(203,1)	(-199,1)	(-469,1)	
L1D 60>	(-1,12)	(-60,32)	(20,2)	(1,12)	(-139,1)	(-164,1)	(66,1)	(-277,1)	(-175,1)	(296,1)	(49,1)	(93,1)	(34,1)	(-296,1)	(-196,1)	(19,1)	
L1D 61>	(-1,45)	(1,6)	(-61,32)	(-284,1)	(79,1)	(3,1)	(-106,2)	(61,1)	(-62,1)	(-227,1)	(-212,1)	(-72,1)	(121,1)	(-382,1)	(-127,1)	(2,2)	
L1D 62>	(-106,5)	(-62,32)	(132,2)	(1,8)	(-226,1)	(269,1)	(348,1)	(-1,18)	(20,1)	(-60,1)	(114,2)	(-52,1)	(-241,1)	(-260,1)	(88,1)	(-76,1)	
L1D 63>	(-1,50)	(-64,3)	(-63,32)	(1,4)	(29,9)	(36,1)	(-119,1)	(-24,1)	(34,9)	(309,1)	(-247,1)	(345,1)	(38,4)	(28,4)	(-252,1)	(-19,1)	
L1D 64>	(-64,34)	(1,7)	(-42,1)	(-30,3)	(0,1)	(66,1)	(-162,2)	(-1,14)	(174,1)	(280,1)	(-183,1)	(-36,2)	(-80,2)	(159,1)	(146,1)	(-38,1)	
L1D 65>	(1,10)	(41,5)	(-69,1)	(-1,47)	(-65,32)	(9,1)	(154,1)	(306,1)	(31,1)	(-50,1)	(28,1)	(124,1)	(106,1)	(-84,1)	(-66,2)	(-38,1)	
L1D 66>	(-1,7)	(-98,1)	(-66,19)	(-106,100)	(131,1)	(1,2)	(-112,1)	(-298,1)	(-370,1)	(-50,1)	(-81,1)	(-122,2)	(134,1)	(-160,1)	(80,1)	(14,2)	
L1D 67>	(-1,54)	(-67,32)	(1,4)	(-430,1)	(14,1)	(-68,2)	(-52,1)	(-476,1)	(-232,1)	(27,1)	(-27,1)	(-273,1)	(185,1)	(115,1)	(17,1)	(152,1)	
L1D 68>	(1,5)	(-68,32)	(46,1)	(-1,10)	(-100,2)	(-26,1)	(286,1)	(-453,1)	(-109,1)	(216,1)	(82,1)	(-330,1)	(290,1)	(28,1)	(-6,1)	(114,1)	
L1D 69>	(1,12)	(-1,65)	(-69,32)	(-367,1)	(276,1)	(-225,1)	(-106,1)	(-320,1)	(-290,1)	(14,1)	(-282,1)	(104,1)	(-267,1)	(-95,1)	(-108,1)	(-36,1)	
L1D 70>	(-70,32)	(-1,9)	(1,15)	(301,1)	(-46,2)	(-296,2)	(-76,1)	(38,1)	(-26,1)	(2,5)	(-17,1)	(-182,2)	(-374,1)	(-119,1)	(-8,1)	(-194,1)	
L1D 71>	(-1,49)	(-284,1)	(1,10)	(-286,1)	(-71,32)	(-292,1)	(46,1)	(-106,14)	(-62,1)	(166,1)	(26,1)	(-289,1)	(29,1)	(35,2)	(-70,1)	(237,1)	
L1D 72>	(93,1)	(-72,31)	(1,6)	(-52,1)	(-231,1)	(286,1)	(-199,1)	(-376,2)	(18,2)	(-200,1)	(-80,2)	(-75,1)	(100,2)	(-25,1)	(-92,1)	(130,1)	
L1D 73>	(-103,1)	(-106,4)	(1,9)	(-86,1)	(-73,31)	(-78,2)	(-1,51)	(239,1)	(-74,3)	(-15,1)	(-49,1)	(-294,1)	(-279,1)	(190,1)	(-323,1)	(-18,1)	
L1D 74>	(-74,30)	(-390,1)	(-1,11)	(-106,1)	(-45,2)	(-18,1)	(-147,2)	(-92,3)	(-32,1)	(-334,1)	(5,1)	(14,2)	(-48,2)	(-198,1)	(-6,1)	(-195,1)	
L1D 75>	(1,16)	(4,1)	(-75,27)	(-1,43)	(-74,1)	(-313,1)	(-186,1)	(185,1)	(-98,1)	(283,1)	(-26,1)	(254,1)	(-250,1)	(3,1)	(6,1)	(-92,1)	
L1D 76>	(-106,6)	(-76,24)	(30,27)	(1,2)	(-1,14)	(-120,1)	(54,1)	(-24,1)	(-62,1)	(256,1)	(-82,1)	(198,1)	(-428,1)	(-180,1)	(-72,2)	(-364,1)	
[...]
L1D 474>	(-260,1)	(-1,1)	(-242,1)	(1,0)	(1,0)	(1,0)	(1,0)	(1,0)	(1,0)	(1,0)	(1,0)	(1,0)	(1,0)	(1,0)	(1,0)	(1,0)	
L1D 475>	(-1,1)	(-290,1)	(1,0)	(1,0)	(1,0)	(1,0)	(1,0)	(1,0)	(1,0)	(1,0)	(1,0)	(1,0)	(1,0)	(1,0)	(1,0)	(1,0)	
L1D 476>	(-1,1)	(-477,1)	(-124,1)	(-470,1)	(-492,1)	(1,0)	(1,0)	(1,0)	(1,0)	(1,0)	(1,0)	(1,0)	(1,0)	(1,0)	(1,0)	(1,0)	
L1D 477>	(-478,3)	(-359,1)	(-1,1)	(-287,1)	(-338,1)	(1,0)	(1,0)	(1,0)	(1,0)	(1,0)	(1,0)	(1,0)	(1,0)	(1,0)	(1,0)	(1,0)	
L1D 478>	(-406,1)	(-451,1)	(1,1)	(1,0)	(1,0)	(1,0)	(1,0)	(1,0)	(1,0)	(1,0)	(1,0)	(1,0)	(1,0)	(1,0)	(1,0)	(1,0)	
L1D 479>	(-175,1)	(-141,1)	(-1,3)	(-109,1)	(-190,1)	(-208,1)	(-397,1)	(-162,1)	(-295,1)	(1,0)	(1,0)	(1,0)	(1,0)	(1,0)	(1,0)	(1,0)	
L1D 480>	(-18,1)	(-256,1)	(-462,1)	(1,0)	(1,0)	(1,0)	(1,0)	(1,0)	(1,0)	(1,0)	(1,0)	(1,0)	(1,0)	(1,0)	(1,0)	(1,0)	
L1D 481>	(-480,1)	(-326,1)	(-1,2)	(-488,1)	(-482,2)	(-96,1)	(1,0)	(1,0)	(1,0)	(1,0)	(1,0)	(1,0)	(1,0)	(1,0)	(1,0)	(1,0)	
L1D 482>	(-50,1)	(-1,2)	(1,0)	(1,0)	(1,0)	(1,0)	(1,0)	(1,0)	(1,0)	(1,0)	(1,0)	(1,0)	(1,0)	(1,0)	(1,0)	(1,0)	
L1D 483>	(-213,1)	(-1,1)	(-428,1)	(-381,1)	(-131,1)	(1,0)	(1,0)	(1,0)	(1,0)	(1,0)	(1,0)	(1,0)	(1,0)	(1,0)	(1,0)	(1,0)	
L1D 484>	(-96,1)	(1,0)	(1,0)	(1,0)	(1,0)	(1,0)	(1,0)	(1,0)	(1,0)	(1,0)	(1,0)	(1,0)	(1,0)	(1,0)	(1,0)	(1,0)	
L1D 485>	(-1,3)	(-20,1)	(-46,1)	(-60,1)	(-486,1)	(1,0)	(1,0)	(1,0)	(1,0)	(1,0)	(1,0)	(1,0)	(1,0)	(1,0)	(1,0)	(1,0)	
L1D 486>	(1,0)	(1,0)	(1,0)	(1,0)	(1,0)	(1,0)	(1,0)	(1,0)	(1,0)	(1,0)	(1,0)	(1,0)	(1,0)	(1,0)	(1,0)	(1,0)	
L1D 487>	(-1,3)	(-40,1)	(-107,1)	(-488,2)	(1,0)	(1,0)	(1,0)	(1,0)	(1,0)	(1,0)	(1,0)	(1,0)	(1,0)	(1,0)	(1,0)	(1,0)	
L1D 488>	(1,0)	(1,0)	(1,0)	(1,0)	(1,0)	(1,0)	(1,0)	(1,0)	(1,0)	(1,0)	(1,0)	(1,0)	(1,0)	(1,0)	(1,0)	(1,0)	
L1D 489>	(-1,2)	(-42,1)	(-178,1)	(-143,1)	(-16,1)	(1,0)	(1,0)	(1,0)	(1,0)	(1,0)	(1,0)	(1,0)	(1,0)	(1,0)	(1,0)	(1,0)	
L1D 490>	(-501,1)	(-236,1)	(-158,1)	(1,0)	(1,0)	(1,0)	(1,0)	(1,0)	(1,0)	(1,0)	(1,0)	(1,0)	(1,0)	(1,0)	(1,0)	(1,0)	
L1D 491>	(1,0)	(1,0)	(1,0)	(1,0)	(1,0)	(1,0)	(1,0)	(1,0)	(1,0)	(1,0)	(1,0)	(1,0)	(1,0)	(1,0)	(1,0)	(1,0)	
L1D 492>	(-293,1)	(1,0)	(1,0)	(1,0)	(1,0)	(1,0)	(1,0)	(1,0)	(1,0)	(1,0)	(1,0)	(1,0)	(1,0)	(1,0)	(1,0)	(1,0)	
L1D 493>	(-239,1)	(-1,1)	(1,0)	(1,0)	(1,0)	(1,0)	(1,0)	(1,0)	(1,0)	(1,0)	(1,0)	(1,0)	(1,0)	(1,0)	(1,0)	(1,0)	
L1D 494>	(-458,1)	(-210,1)	(-425,1)	(1,0)	(1,0)	(1,0)	(1,0)	(1,0)	(1,0)	(1,0)	(1,0)	(1,0)	(1,0)	(1,0)	(1,0)	(1,0)	
L1D 495>	(-496,1)	(1,0)	(1,0)	(1,0)	(1,0)	(1,0)	(1,0)	(1,0)	(1,0)	(1,0)	(1,0)	(1,0)	(1,0)	(1,0)	(1,0)	(1,0)	
L1D 496>	(-1,1)	(1,0)	(1,0)	(1,0)	(1,0)	(1,0)	(1,0)	(1,0)	(1,0)	(1,0)	(1,0)	(1,0)	(1,0)	(1,0)	(1,0)	(1,0)	
L1D 497>	(1,1)	(-335,1)	(-1,1)	(1,0)	(1,0)	(1,0)	(1,0)	(1,0)	(1,0)	(1,0)	(1,0)	(1,0)	(1,0)	(1,0)	(1,0)	(1,0)	
L1D 498>	(1,1)	(5,1)	(1,0)	(1,0)	(1,0)	(1,0)	(1,0)	(1,0)	(1,0)	(1,0)	(1,0)	(1,0)	(1,0)	(1,0)	(1,0)	(1,0)	
L1D 499>	(-1,1)	(1,0)	(1,0)	(1,0)	(1,0)	(1,0)	(1,0)	(1,0)	(1,0)	(1,0)	(1,0)	(1,0)	(1,0)	(1,0)	(1,0)	(1,0)	
L1D 500>	(1,0)	(1,0)	(1,0)	(1,0)	(1,0)	(1,0)	(1,0)	(1,0)	(1,0)	(1,0)	(1,0)	(1,0)	(1,0)	(1,0)	(1,0)	(1,0)	
L1D 501>	(1,0)	(1,0)	(1,0)	(1,0)	(1,0)	(1,0)	(1,0)	(1,0)	(1,0)	(1,0)	(1,0)	(1,0)	(1,0)	(1,0)	(1,0)	(1,0)	
L1D 502>	(-350,1)	(1,0)	(1,0)	(1,0)	(1,0)	(1,0)	(1,0)	(1,0)	(1,0)	(1,0)	(1,0)	(1,0)	(1,0)	(1,0)	(1,0)	(1,0)	
L1D 503>	(-58,1)	(1,0)	(1,0)	(1,0)	(1,0)	(1,0)	(1,0)	(1,0)	(1,0)	(1,0)	(1,0)	(1,0)	(1,0)	(1,0)	(1,0)	(1,0)	
L1D 504>	(-154,1)	(1,0)	(1,0)	(1,0)	(1,0)	(1,0)	(1,0)	(1,0)	(1,0)	(1,0)	(1,0)	(1,0)	(1,0)	(1,0)	(1,0)	(1,0)	
L1D 505>	(-1,3)	(1,0)	(1,0)	(1,0)	(1,0)	(1,0)	(1,0)	(1,0)	(1,0)	(1,0)	(1,0)	(1,0)	(1,0)	(1,0)	(1,0)	(1,0)	
L1D 506>	(1,0)	(1,0)	(1,0)	(1,0)	(1,0)	(1,0)	(1,0)	(1,0)	(1,0)	(1,0)	(1,0)	(1,0)	(1,0)	(1,0)	(1,0)	(1,0)	
L1D 507>	(-455,1)	(1,0)	(1,0)	(1,0)	(1,0)	(1,0)	(1,0)	(1,0)	(1,0)	(1,0)	(1,0)	(1,0)	(1,0)	(1,0)	(1,0)	(1,0)	
L1D 508>	(1,0)	(1,0)	(1,0)	(1,0)	(1,0)	(1,0)	(1,0)	(1,0)	(1,0)	(1,0)	(1,0)	(1,0)	(1,0)	(1,0)	(1,0)	(1,0)	
L1D 509>	(-1,1)	(1,0)	(1,0)	(1,0)	(1,0)	(1,0)	(1,0)	(1,0)	(1,0)	(1,0)	(1,0)	(1,0)	(1,0)	(1,0)	(1,0)	(1,0)	
L1D 510>	(1,0)	(1,0)	(1,0)	(1,0)	(1,0)	(1,0)	(1,0)	(1,0)	(1,0)	(1,0)	(1,0)	(1,0)	(1,0)	(1,0)	(1,0)	(1,0)	
L1D 511>	(1,0)	(1,0)	(1,0)	(1,0)	(1,0)	(1,0)	(1,0)	(1,0)	(1,0)	(1,0)	(1,0)	(1,0)	(1,0)	(1,0)	(1,0)	(1,0)	

L2C -64>	(1,134)	(5,13)	(-3,3)	(9,3)	(0,3)	(-14,2)	(18,2)	(-2,2)	(3,4)	(2,11)	(4,14)	(-5,2)	(-4,2)	(8,2)	(11,1)	(-44,1)	
L2C -63>	(62,1)	(1,248)	(4,4)	(10,0)	(59,0)	(17,1)	(3,0)	(14,0)	(53,0)	(28,0)	(33,0)	(1,0)	(1,0)	(1,0)	(1,0)	(1,0)	
L2C -62>	(1,10)	(59,1)	(52,1)	(60,1)	(4,1)	(-1,4)	(6,1)	(13,1)	(41,1)	(2,3)	(3,1)	(61,1)	(14,1)	(1,0)	(1,0)	(1,0)	
L2C -61>	(60,2)	(1,11)	(12,1)	(62,1)	(53,1)	(35,1)	(57,1)	(5,1)	(58,1)	(7,1)	(8,1)	(1,0)	(1,0)	(1,0)	(1,0)	(1,0)	
L2C -60>	(1,24)	(54,1)	(48,1)	(60,1)	(26,1)	(61,2)	(11,1)	(37,1)	(0,1)	(1,0)	(1,0)	(1,0)	(1,0)	(1,0)	(1,0)	(1,0)	
L2C -59>	(2,2)	(-1,3)	(1,17)	(-2,2)	(-3,1)	(46,1)	(58,1)	(-4,1)	(61,1)	(10,2)	(17,1)	(53,1)	(14,2)	(8,1)	(4,1)	(5,1)	
L2C -58>	(59,1)	(53,3)	(52,1)	(9,1)	(1,9)	(31,1)	(44,1)	(-4,2)	(6,3)	(32,1)	(38,1)	(-1,3)	(12,1)	(5,2)	(19,1)	(25,1)	
L2C -57>	(30,2)	(1,8)	(2,3)	(-2,1)	(53,1)	(-4,1)	(34,1)	(56,1)	(50,1)	(58,1)	(3,1)	(33,1)	(-3,1)	(8,1)	(-1,1)	(10,1)	
L2C -56>	(1,17)	(38,1)	(53,1)	(29,1)	(11,1)	(57,3)	(28,1)	(55,2)	(3,2)	(8,1)	(61,1)	(60,1)	(1,0)	(1,0)	(1,0)	(1,0)	
L2C -55>	(1,10)	(-1,7)	(-4,2)	(50,2)	(57,1)	(52,1)	(-8,1)	(12,2)	(-7,1)	(8,1)	(30,1)	(3,2)	(53,1)	(47,1)	(54,1)	(1,0)	
L2C -54>	(1,16)	(58,1)	(3,1)	(53,1)	(-1,2)	(43,1)	(46,1)	(11,1)	(55,1)	(32,1)	(-5,1)	(37,1)	(51,1)	(49,1)	(9,1)	(1,0)	
L2C -53>	(1,8)	(54,3)	(49,2)	(18,2)	(8,1)	(22,1)	(46,1)	(13,1)	(58,1)	(2,2)	(5,1)	(12,1)	(-6,1)	(60,1)	(1,0)	(1,0)	
L2C -52>	(5,1)	(1,5)	(2,1)	(51,1)	(50,2)	(11,2)	(-4,3)	(9,1)	(-1,1)	(54,1)	(57,1)	(49,1)	(3,1)	(56,1)	(7,1)	(12,1)	
L2C -51>	(5,1)	(2,3)	(1,4)	(3,3)	(-6,1)	(-3,1)	(-2,1)	(26,1)	(58,1)	(-5,1)	(4,2)	(48,1)	(25,1)	(-4,1)	(41,1)	(57,1)	
L2C -50>	(-2,1)	(1,6)	(10,1)	(47,1)	(43,1)	(12,1)	(3,2)	(55,1)	(49,1)	(2,1)	(42,1)	(48,1)	(58,1)	(13,1)	(1,0)	(1,0)	
L2C -49>	(51,3)	(61,1)	(47,1)	(1,2)	(-9,1)	(44,1)	(50,1)	(39,1)	(-12,1)	(53,1)	(48,1)	(-1,1)	(3,1)	(1,0)	(1,0)	(1,0)	
L2C -48>	(63,1)	(43,1)	(1,3)	(2,4)	(3,2)	(50,1)	(-3,1)	(59,1)	(44,1)	(-9,1)	(61,1)	(-14,1)	(45,1)	(58,1)	(1,0)	(1,0)	
L2C -47>	(-6,2)	(43,2)	(5,1)	(1,5)	(48,2)	(-1,4)	(21,1)	(3,1)	(13,2)	(14,1)	(17,1)	(8,1)	(-5,2)	(38,1)	(-3,1)	(2,2)	
L2C -46>	(-1,2)	(1,16)	(2,1)	(-2,2)	(5,1)	(47,1)	(7,1)	(10,1)	(8,1)	(-3,1)	(3,1)	(4,1)	(50,1)	(25,1)	(45,3)	(30,1)	
L2C -45>	(1,9)	(43,1)	(47,2)	(52,1)	(21,1)	(30,1)	(46,1)	(-7,1)	(39,1)	(48,1)	(-5,1)	(2,2)	(-12,1)	(1,0)	(1,0)	(1,0)	
L2C -44>	(17,1)	(1,14)	(34,1)	(37,3)	(45,1)	(-12,1)	(2,2)	(9,1)	(-9,1)	(-6,1)	(49,1)	(48,2)	(41,1)	(50,1)	(-8,1)	(-4,1)	
L2C -43>	(1,27)	(-1,3)	(-13,1)	(44,1)	(36,1)	(45,2)	(-9,1)	(9,1)	(47,1)	(6,1)	(48,2)	(40,1)	(-16,1)	(-5,1)	(1,0)	(1,0)	
L2C -42>	(1,9)	(-6,1)	(51,1)	(-11,1)	(7,2)	(43,1)	(55,1)	(38,1)	(12,1)	(-10,1)	(2,1)	(-18,1)	(45,1)	(28,1)	(29,1)	(35,1)	
L2C -41>	(1,23)	(45,1)	(-10,1)	(44,1)	(-2,2)	(-1,1)	(48,1)	(10,1)	(-7,2)	(2,1)	(-3,1)	(42,1)	(23,1)	(38,1)	(1,0)	(1,0)	
L2C -40>	(14,1)	(2,1)	(-14,1)	(1,43)	(-1,2)	(-21,1)	(-3,1)	(41,4)	(39,1)	(8,1)	(16,1)	(34,1)	(-4,2)	(36,1)	(1,0)	(1,0)	
L2C -39>	(38,1)	(-8,1)	(50,1)	(1,19)	(59,1)	(35,1)	(-2,1)	(42,1)	(-1,1)	(4,1)	(-18,1)	(45,1)	(7,2)	(12,1)	(1,0)	(1,0)	
L2C -38>	(-14,2)	(38,1)	(1,2)	(21,1)	(34,1)	(59,1)	(35,2)	(5,2)	(50,1)	(58,1)	(-1,2)	(56,1)	(36,1)	(-24,1)	(7,1)	(1,0)	
L2C -37>	(1,8)	(10,1)	(24,1)	(19,1)	(12,1)	(-21,1)	(-7,1)	(-3,1)	(52,1)	(36,1)	(-15,1)	(-1,1)	(-19,1)	(38,1)	(-5,1)	(17,1)	
L2C -36>	(18,1)	(1,4)	(29,1)	(-4,2)	(-5,1)	(3,1)	(39,1)	(-2,1)	(-24,1)	(2,1)	(-16,1)	(45,1)	(32,1)	(-27,1)	(7,1)	(17,1)	
L2C -35>	(1,13)	(57,1)	(39,2)	(-8,1)	(40,1)	(22,1)	(-4,1)	(34,1)	(56,1)	(48,1)	(8,1)	(17,1)	(37,1)	(-7,1)	(-16,1)	(55,1)	
L2C -34>	(14,1)	(1,29)	(31,1)	(-7,1)	(45,1)	(-21,1)	(1,0)	(1,0)	(1,0)	(1,0)	(1,0)	(1,0)	(1,0)	(1,0)	(1,0)	(1,0)	
L2C -33>	(1,9)	(-8,1)	(44,1)	(7,1)	(-3,1)	(52,1)	(-4,1)	(-1,1)	(39,1)	(8,1)	(4,1)	(18,1)	(1,0)	(1,0)	(1,0)	(1,0)	
L2C -32>	(1,14)	(3,2)	(36,1)	(-12,1)	(24,1)	(22,1)	(-3,1)	(58,1)	(60,1)	(52,1)	(-8,1)	(28,1)	(-14,1)	(-10,1)	(1,0)	(1,0)	
L2C -31>	(39,1)	(1,6)	(-1,3)	(37,1)	(11,1)	(-9,1)	(59,1)	(-32,1)	(-17,1)	(-7,1)	(28,1)	(27,1)	(-23,1)	(-26,1)	(52,1)	(2,1)	
L2C -30>	(-1,3)	(1,4)	(51,1)	(15,1)	(-8,1)	(26,1)	(29,1)	(31,1)	(-25,1)	(-16,1)	(25,1)	(1,0)	(1,0)	(1,0)	(1,0)	(1,0)	
L2C -29>	(1,7)	(27,2)	(32,1)	(30,1)	(-4,1)	(24,1)	(34,1)	(13,1)	(52,1)	(25,1)	(-2,1)	(20,1)	(4,1)	(-13,1)	(26,1)	(1,0)	
L2C -28>	(1,10)	(-26,1)	(26,2)	(3,1)	(-10,1)	(-15,1)	(-1,2)	(27,1)	(6,1)	(-24,1)	(48,1)	(-16,1)	(23,1)	(7,2)	(29,1)	(1,0)	
L2C -27>	(1,8)	(-1,1)	(35,1)	(21,1)	(16,1)	(19,1)	(28,3)	(14,1)	(5,1)	(45,1)	(25,1)	(-19,1)	(26,1)	(-20,1)	(-23,1)	(-28,1)	
L2C -26>	(1,14)	(16,1)	(-31,1)	(3,1)	(8,1)	(5,1)	(-25,1)	(-3,1)	(23,2)	(24,1)	(28,1)	(-10,1)	(-6,1)	(48,1)	(-2,1)	(34,1)	
L2C -25>	(1,6)	(20,2)	(-6,1)	(26,3)	(33,2)	(-18,1)	(32,1)	(-22,1)	(36,1)	(-5,1)	(7,1)	(2,1)	(-1,1)	(13,1)	(3,1)	(48,1)	
L2C -24>	(2,2)	(1,12)	(3,1)	(21,1)	(18,2)	(20,1)	(32,1)	(25,1)	(55,1)	(16,1)	(-18,1)	(-4,1)	(23,1)	(27,1)	(53,1)	(28,1)	
L2C -23>	(1,16)	(8,1)	(19,1)	(-36,1)	(2,1)	(26,1)	(60,1)	(6,1)	(-3,1)	(31,1)	(29,1)	(18,1)	(21,1)	(44,1)	(1,0)	(1,0)	
L2C -22>	(1,12)	(-7,1)	(-3,1)	(4,1)	(42,1)	(-5,1)	(24,1)	(1,0)	(1,0)	(1,0)	(1,0)	(1,0)	(1,0)	(1,0)	(1,0)	(1,0)	
L2C -21>	(1,15)	(-2,1)	(6,1)	(25,3)	(-36,1)	(-9,1)	(22,2)	(4,2)	(-39,1)	(2,2)	(3,2)	(24,1)	(45,1)	(-3,2)	(34,1)	(1,0)	
L2C -20>	(1,9)	(-1,5)	(-28,1)	(-4,1)	(49,1)	(18,1)	(19,1)	(2,2)	(14,1)	(3,2)	(25,1)	(-2,1)	(-7,1)	(-5,1)	(13,1)	(12,1)	
L2C -19>	(1,6)	(17,2)	(22,1)	(24,1)	(15,1)	(-1,3)	(10,1)	(27,1)	(18,1)	(-36,1)	(-38,1)	(49,1)	(1,0)	(1,0)	(1,0)	(1,0)	
L2C -18>	(1,17)	(16,3)	(31,1)	(50,1)	(27,1)	(20,3)	(-6,1)	(2,1)	(29,1)	(53,1)	(4,1)	(-10,2)	(59,1)	(42,1)	(-2,1)	(9,1)	
L2C -17>	(1,27)	(4,4)	(19,1)	(10,1)	(6,1)	(38,1)	(-1,2)	(-5,1)	(-9,1)	(18,1)	(8,1)	(9,1)	(13,1)	(15,1)	(-33,1)	(56,1)	
L2C -16>	(-12,1)	(1,28)	(5,1)	(17,2)	(6,3)	(-34,1)	(-30,1)	(-1,2)	(10,2)	(-10,1)	(2,1)	(44,1)	(28,1)	(-7,1)	(52,1)	(42,1)	
L2C -15>	(1,19)	(3,2)	(-1,5)	(25,1)	(10,1)	(61,1)	(9,1)	(-42,1)	(11,2)	(-3,1)	(14,1)	(13,2)	(29,2)	(2,3)	(4,1)	(-6,1)	
L2C -14>	(7,1)	(15,3)	(38,1)	(1,21)	(29,1)	(9,2)	(-46,1)	(17,2)	(2,2)	(-14,1)	(-31,1)	(28,1)	(-1,6)	(-6,1)	(48,1)	(56,1)	
L2C -13>	(2,3)	(14,13)	(1,14)	(7,2)	(56,1)	(-16,1)	(-11,2)	(-14,2)	(12,2)	(5,5)	(11,2)	(-31,1)	(10,4)	(-4,1)	(-1,6)	(60,1)	
L2C -12>	(9,6)	(1,8)	(2,2)	(10,2)	(52,1)	(38,1)	(-5,1)	(26,2)	(50,1)	(4,3)	(-1,6)	(58,1)	(30,1)	(16,1)	(23,1)	(17,1)	
L2C -11>	(1,35)	(-5,1)	(7,1)	(3,3)	(18,1)	(-9,1)	(35,2)	(4,3)	(6,1)	(60,1)	(2,5)	(13,1)	(-37,1)	(-4,2)	(-38,1)	(12,2)	
L2C -10>	(-2,2)	(1,35)	(11,6)	(4,4)	(-1,5)	(15,2)	(2,8)	(-12,2)	(5,3)	(-19,1)	(18,2)	(-38,1)	(14,1)	(8,1)	(10,1)	(26,1)	
L2C -9>	(0,3)	(-9,2)	(1,35)	(9,4)	(10,1)	(7,8)	(3,11)	(8,2)	(50,1)	(-12,1)	(12,1)	(2,3)	(54,1)	(16,1)	(6,4)	(23,1)	
L2C -8>	(1,43)	(-13,1)	(-1,6)	(-44,2)	(-42,1)	(11,2)	(3,4)	(-5,1)	(2,14)	(40,2)	(37,1)	(10,3)	(33,1)	(-48,1)	(5,9)	(-16,1)	
L2C -7>	(-24,1)	(1,32)	(2,9)	(9,5)	(4,6)	(-1,7)	(-2,13)	(11,1)	(5,6)	(3,18)	(8,10)	(48,2)	(13,1)	(-46,2)	(-17,1)	(33,1)	
L2C -6>	(4,8)	(8,3)	(-8,1)	(1,23)	(-1,10)	(0,3)	(7,10)	(-46,1)	(-4,2)	(-27,1)	(-36,1)	(5,6)	(-3,2)	(-2,5)	(-32,1)	(58,1)	
L2C -5>	(1,43)	(12,2)	(2,7)	(5,2)	(0,27)	(6,6)	(8,3)	(56,1)	(17,2)	(11,2)	(-16,1)	(4,7)	(7,2)	(13,1)	(-1,2)	(-35,1)	
L2C -4>	(5,10)	(2,6)	(1,66)	(-1,15)	(6,8)	(3,17)	(-29,2)	(4,2)	(0,5)	(-8,1)	(11,3)	(-5,2)	(42,1)	(8,5)	(-27,2)	(29,1)	
L2C -3>	(7,1)	(1,49)	(-5,1)	(5,15)	(-1,10)	(-34,1)	(-2,6)	(-4,4)	(2,41)	(4,21)	(-60,2)	(61,1)	(-19,1)	(3,19)	(-10,1)	(-26,3)	
L2C -2>	(1,110)	(-1,25)	(55,1)	(-2,15)	(3,56)	(8,2)	(52,2)	(10,3)	(-29,2)	(7,3)	(2,9)	(58,1)	(-27,2)	(-53,2)	(4,14)	(-32,1)	
L2C -1>	(-6,5)	(2,235)	(9,6)	(8,7)	(1,69)	(3,52)	(5,10)	(-2,6)	(4,19)	(25,1)	(-1,51)	(-13,4)	(0,7)	(15,1)	(-53,3)	(-3,14)	
L2C 0>	(1,55)	(11,1)	(0,56)	(-3,2)	(-4,2)	(3,1)	(-62,1)	(-1,6)	(-2,4)	(7,3)	(2,5)	(-9,2)	(-8,2)	(37,1)	(-29,1)	(4,2)	
L2C 1>	(1,143)	(-58,0)	(5,0)	(-14,0)	(-5,0)	(-11,0)	(-3,0)	(-39,0)	(-63,1)	(-8,0)	(-4,0)	(2,0)	(0,0)	(-7,0)	(-2,0)	(3,0)	
L2C 2>	(-1,52)	(1,136)	(-11,2)	(-2,2)	(-5,4)	(2,18)	(-3,11)	(3,2)	(-17,0)	(4,0)	(5,1)	(46,0)	(-6,2)	(6,1)	(-4,6)	(-43,1)	
L2C 3>	(1,202)	(-21,3)	(-2,85)	(2,40)	(3,10)	(-1,43)	(-15,3)	(5,5)	(-8,3)	(4,3)	(-9,4)	(-5,2)	(-3,1)	(-7,5)	(-59,1)	(21,2)	
L2C 4>	(1,99)	(-43,1)	(24,1)	(-10,2)	(-13,5)	(-3,31)	(-55,2)	(2,10)	(4,2)	(0,1)	(-63,1)	(-1,17)	(3,5)	(-5,5)	(-2,17)	(55,2)	
L2C 5>	(-2,11)	(-6,5)	(-3,6)	(-7,3)	(1,54)	(2,14)	(3,8)	(-1,11)	(-4,13)	(15,1)	(-63,1)	(-47,1)	(-35,1)	(10,2)	(-59,2)	(9,2)	
L2C 6>	(1,42)	(3,4)	(-7,4)	(2,7)	(-1,5)	(-8,6)	(-54,2)	(-18,1)	(43,1)	(-2,4)	(-59,1)	(47,1)	(-3,4)	(-10,1)	(-12,1)	(-5,3)	
L2C 7>	(1,44)	(-5,3)	(6,1)	(-1,4)	(3,2)	(2,5)	(-2,4)	(4,1)	(-32,1)	(-6,2)	(9,2)	(-20,1)	(-9,2)	(-17,1)	(21,2)	(-10,1)	
L2C 8>	(-7,6)	(1,35)	(6,4)	(-11,2)	(17,1)	(-57,2)	(-5,2)	(-29,1)	(-8,1)	(-6,3)	(-4,2)	(-59,1)	(-23,1)	(3,3)	(-1,4)	(44,2)	
L2C 9>	(-11,2)	(-46,1)	(1,42)	(5,1)	(-45,1)	(-1,5)	(3,3)	(0,1)	(-2,3)	(-8,9)	(-12,2)	(-5,1)	(7,1)	(-20,1)	(-9,1)	(-13,3)	
L2C 10>	(1,33)	(2,3)	(-9,2)	(-3,2)	(-27,1)	(-2,3)	(-7,2)	(-4,3)	(-1,2)	(-13,1)	(-47,1)	(45,1)	(-8,1)	(-49,1)	(-11,2)	(-15,1)	
L2C 11>	(-1,4)	(2,5)	(1,34)	(7,1)	(-12,1)	(3,5)	(41,2)	(37,1)	(-7,1)	(-2,2)	(-14,1)	(14,1)	(-15,1)	(42,1)	(46,1)	(38,1)	
L2C 12>	(1,23)	(2,1)	(8,1)	(-63,1)	(7,3)	(-48,1)	(-14,3)	(6,4)	(-1,1)	(-19,1)	(-24,1)	(-27,1)	(26,1)	(5,1)	(22,1)	(-13,1)	
L2C 13>	(1,16)	(-1,2)	(47,1)	(-19,1)	(49,1)	(15,1)	(-3,3)	(-15,1)	(-44,1)	(3,2)	(-14,1)	(-12,1)	(14,1)	(33,1)	(38,1)	(42,2)	
L2C 14>	(1,13)	(38,1)	(-63,1)	(36,1)	(-7,2)	(-12,2)	(-13,4)	(-9,2)	(-8,4)	(-5,1)	(-30,1)	(5,1)	(-4,1)	(46,1)	(2,1)	(43,1)	
L2C 15>	(1,17)	(-1,1)	(42,2)	(-4,2)	(3,1)	(-13,1)	(-2,4)	(-33,1)	(18,1)	(-5,2)	(-9,2)	(-28,1)	(15,1)	(-36,1)	(-8,1)	(-24,1)	
L2C 16>	(-15,3)	(-48,1)	(1,12)	(2,2)	(-29,1)	(-6,1)	(37,1)	(-4,1)	(28,1)	(32,1)	(-11,1)	(23,1)	(-2,1)	(1,0)	(1,0)	(1,0)	
L2C 17>	(1,17)	(25,1)	(-18,1)	(-7,1)	(5,2)	(37,1)	(-1,1)	(42,2)	(-2,1)	(-9,1)	(-19,1)	(-4,2)	(29,2)	(2,2)	(22,1)	(31,1)	
L2C 18>	(2,2)	(1,10)	(20,1)	(19,2)	(44,1)	(-6,1)	(28,2)	(-48,1)	(5,2)	(-3,2)	(-1,1)	(9,1)	(-28,1)	(-17,2)	(-5,1)	(-7,1)	
L2C 19>	(9,3)	(-18,2)	(-20,2)	(1,10)	(-2,1)	(3,1)	(-50,1)	(-1,4)	(-21,1)	(-40,1)	(-47,1)	(-55,1)	(7,1)	(36,1)	(32,1)	(5,1)	
L2C 20>	(1,3)	(-19,1)	(7,2)	(-21,1)	(-1,3)	(5,1)	(2,1)	(6,1)	(25,1)	(-11,2)	(4,1)	(15,1)	(12,1)	(1,0)	(1,0)	(1,0)	
L2C 21>	(-25,1)	(1,7)	(8,1)	(31,1)	(-18,1)	(-37,1)	(-3,1)	(-5,1)	(-16,1)	(-22,1)	(22,1)	(-4,1)	(-8,2)	(2,1)	(-13,1)	(7,1)	
L2C 22>	(1,3)	(21,1)	(-4,1)	(-21,1)	(30,1)	(-46,1)	(-14,1)	(10,1)	(2,1)	(33,1)	(4,1)	(-16,1)	(-35,2)	(-31,2)	(-1,2)	(39,1)	
L2C 23>	(-24,1)	(1,8)	(-7,1)	(-46,1)	(-4,1)	(2,3)	(-12,1)	(7,3)	(-9,1)	(-30,1)	(-35,1)	(26,1)	(-6,1)	(1,0)	(1,0)	(1,0)	
L2C 24>	(1,6)	(-55,1)	(3,1)	(-11,2)	(-46,1)	(-43,1)	(8,1)	(-20,1)	(-17,1)	(-26,1)	(-10,1)	(-1,1)	(-47,1)	(1,0)	(1,0)	(1,0)	
L2C 25>	(-20,2)	(-3,1)	(15,1)	(-28,1)	(4,1)	(-5,1)	(7,1)	(-7,1)	(1,1)	(-22,1)	(24,1)	(3,1)	(-40,1)	(-42,1)	(-9,1)	(-27,1)	
L2C 26>	(1,3)	(-6,1)	(-24,1)	(-27,1)	(6,1)	(-25,4)	(-18,1)	(-13,1)	(2,4)	(-1,1)	(-16,2)	(3,1)	(-9,1)	(19,1)	(-51,2)	(-3,1)	
L2C 27>	(22,1)	(1,4)	(-7,1)	(-5,1)	(-6,1)	(-35,1)	(-11,1)	(-25,1)	(-29,1)	(10,1)	(-16,1)	(4,1)	(1,0)	(1,0)	(1,0)	(1,0)	
L2C 28>	(-35,1)	(1,5)	(-4,1)	(5,1)	(-24,2)	(29,1)	(-26,1)	(-8,1)	(-52,1)	(-46,1)	(-27,1)	(-6,1)	(9,1)	(2,1)	(-25,1)	(-16,1)	
L2C 29>	(4,1)	(26,1)	(-18,1)	(-47,2)	(-14,1)	(-3,1)	(-55,2)	(3,2)	(1,1)	(-62,1)	(-4,2)	(-26,1)	(-1,2)	(-58,1)	(-51,1)	(-2,1)	
L2C 30>	(1,3)	(-29,1)	(-13,1)	(-14,1)	(-7,1)	(-31,1)	(14,1)	(-9,1)	(26,1)	(9,1)	(10,1)	(1,0)	(1,0)	(1,0)	(1,0)	(1,0)	
L2C 31>	(1,4)	(4,1)	(-23,1)	(6,1)	(1,0)	(1,0)	(1,0)	(1,0)	(1,0)	(1,0)	(1,0)	(1,0)	(1,0)	(1,0)	(1,0)	(1,0)	
L2C 32>	(1,1)	(-36,1)	(-45,1)	(-37,1)	(29,1)	(-13,1)	(12,1)	(-35,1)	(-44,1)	(4,1)	(-5,1)	(9,1)	(1,0)	(1,0)	(1,0)	(1,0)	
L2C 33>	(1,3)	(-1,1)	(-2,1)	(-5,1)	(-30,1)	(15,1)	(-42,1)	(-47,1)	(-32,1)	(5,1)	(-31,1)	(26,1)	(-20,1)	(1,0)	(1,0)	(1,0)	
L2C 34>	(-40,1)	(1,7)	(-53,1)	(-60,1)	(-4,1)	(-27,1)	(8,1)	(12,1)	(-32,2)	(-1,1)	(-45,1)	(13,1)	(-41,1)	(-13,1)	(-21,1)	(-37,1)	
L2C 35>	(-34,1)	(1,3)	(-2,1)	(-1,1)	(22,1)	(-25,2)	(8,1)	(2,1)	(4,1)	(23,1)	(-7,2)	(1,0)	(1,0)	(1,0)	(1,0)	(1,0)	
L2C 36>	(-1,3)	(-5,1)	(-10,1)	(-29,1)	(-59,1)	(-35,1)	(7,1)	(5,1)	(1,2)	(-14,1)	(-44,2)	(-58,1)	(8,1)	(1,0)	(1,0)	(1,0)	
L2C 37>	(-4,1)	(1,4)	(-1,2)	(5,1)	(-6,1)	(-7,1)	(7,1)	(2,5)	(8,1)	(14,1)	(-46,1)	(-35,2)	(-39,1)	(19,1)	(-25,1)	(-2,2)	
L2C 38>	(-37,2)	(4,1)	(-26,1)	(-1,2)	(-39,2)	(13,1)	(-40,1)	(20,1)	(-7,1)	(-27,1)	(-4,1)	(-6,1)	(9,1)	(1,2)	(-42,1)	(-33,1)	
L2C 39>	(-51,1)	(-1,1)	(2,3)	(-23,1)	(-10,1)	(-34,1)	(-38,1)	(-31,1)	(4,1)	(-9,1)	(3,2)	(-58,1)	(1,1)	(-61,1)	(-42,1)	(-7,1)	
L2C 40>	(-26,1)	(-27,1)	(1,8)	(-7,1)	(-46,1)	(-58,1)	(-49,1)	(-42,1)	(15,1)	(-41,2)	(-56,1)	(1,0)	(1,0)	(1,0)	(1,0)	(1,0)	
L2C 41>	(-28,2)	(-42,1)	(-29,1)	(-3,1)	(-1,2)	(-7,1)	(-5,1)	(-44,1)	(2,1)	(-50,1)	(16,1)	(-36,1)	(-51,1)	(-62,3)	(13,1)	(-52,2)	
L2C 42>	(1,4)	(3,3)	(-58,3)	(-37,1)	(-50,1)	(-1,2)	(-51,2)	(-31,1)	(-62,1)	(15,1)	(17,1)	(1,0)	(1,0)	(1,0)	(1,0)	(1,0)	
L2C 43>	(1,2)	(-11,1)	(-42,1)	(-35,1)	(-30,1)	(-33,1)	(-7,1)	(-3,1)	(-53,1)	(-46,1)	(-48,1)	(-12,1)	(2,1)	(1,0)	(1,0)	(1,0)	
L2C 44>	(-38,1)	(1,8)	(-2,1)	(-40,1)	(6,1)	(3,1)	(-58,1)	(9,1)	(-30,1)	(-52,1)	(2,1)	(-50,1)	(-32,2)	(1,0)	(1,0)	(1,0)	
L2C 45>	(1,3)	(-1,1)	(-40,1)	(-50,1)	(-47,1)	(-10,1)	(-35,1)	(-6,1)	(4,1)	(-49,2)	(12,1)	(7,1)	(-31,1)	(-5,1)	(-53,1)	(-33,1)	
L2C 46>	(1,3)	(-49,1)	(-45,2)	(-21,1)	(3,1)	(-63,1)	(4,1)	(-40,1)	(-5,1)	(7,1)	(6,1)	(-1,1)	(1,0)	(1,0)	(1,0)	(1,0)	
L2C 47>	(1,3)	(-52,1)	(-2,1)	(-4,1)	(3,1)	(-40,1)	(-25,1)	(-41,1)	(-11,1)	(-58,1)	(-51,1)	(-37,1)	(-16,1)	(9,1)	(-38,1)	(1,0)	
L2C 48>	(-47,3)	(-55,1)	(9,1)	(-1,1)	(-14,1)	(1,3)	(-16,1)	(-54,2)	(-52,1)	(-5,1)	(-43,1)	(-13,1)	(4,1)	(-53,1)	(-44,1)	(2,1)	
L2C 49>	(-1,1)	(0,1)	(-48,1)	(1,2)	(5,1)	(-30,1)	(2,1)	(-7,1)	(-42,1)	(3,3)	(-47,1)	(-58,1)	(-4,1)	(-44,1)	(-43,1)	(-35,1)	
L2C 50>	(1,4)	(-6,1)	(-51,3)	(-37,2)	(3,1)	(-40,2)	(11,1)	(-39,1)	(-47,1)	(-36,1)	(-54,1)	(-45,1)	(2,2)	(4,1)	(-61,2)	(-28,1)	
L2C 51>	(-61,1)	(0,1)	(-47,1)	(-44,1)	(2,1)	(10,1)	(-56,1)	(-40,1)	(-52,1)	(-50,1)	(-43,1)	(-38,1)	(4,1)	(3,1)	(-41,1)	(1,0)	
L2C 52>	(8,1)	(-6,2)	(11,1)	(-47,1)	(3,2)	(-1,2)	(1,3)	(-51,2)	(-50,2)	(-58,2)	(-34,1)	(6,1)	(-10,2)	(-8,1)	(1,0)	(1,0)	
L2C 53>	(-38,1)	(4,1)	(-1,2)	(-19,1)	(-7,1)	(-35,1)	(1,2)	(3,2)	(-39,1)	(-20,1)	(-43,1)	(-37,1)	(-30,1)	(-57,1)	(-54,2)	(-5,1)	
L2C 54>	(1,8)	(-12,1)	(-56,2)	(-23,1)	(-46,1)	(-63,1)	(-42,1)	(2,1)	(-10,1)	(-48,1)	(-45,1)	(4,1)	(6,1)	(-59,1)	(1,0)	(1,0)	
L2C 55>	(1,7)	(5,1)	(3,1)	(-44,1)	(-56,1)	(-1,1)	(-60,1)	(-3,1)	(-37,1)	(-49,1)	(-52,1)	(-33,1)	(1,0)	(1,0)	(1,0)	(1,0)	
L2C 56>	(-8,1)	(4,1)	(-51,1)	(1,2)	(-59,3)	(-57,2)	(-30,1)	(-53,1)	(-2,1)	(-44,1)	(1,0)	(1,0)	(1,0)	(1,0)	(1,0)	(1,0)	
L2C 57>	(-62,1)	(-29,1)	(5,1)	(1,1)	(-45,1)	(2,1)	(-63,1)	(-6,1)	(-46,1)	(-58,1)	(-44,1)	(-7,1)	(-37,1)	(-52,1)	(1,0)	(1,0)	
L2C 58>	(-26,1)	(1,4)	(-10,1)	(-8,1)	(-48,1)	(-1,1)	(-56,2)	(-42,1)	(-55,1)	(-4,1)	(2,1)	(-5,1)	(-53,1)	(-59,1)	(-49,1)	(1,0)	
L2C 59>	(1,2)	(2,2)	(-36,1)	(-1,2)	(-57,1)	(-56,1)	(-62,1)	(-51,1)	(-55,1)	(-9,1)	(1,0)	(1,0)	(1,0)	(1,0)	(1,0)	(1,0)	
L2C 60>	(1,1)	(-59,2)	(-61,1)	(-56,1)	(-57,2)	(-58,1)	(2,2)	(-9,1)	(-54,1)	(-51,1)	(-44,1)	(1,0)	(1,0)	(1,0)	(1,0)	(1,0)	
L2C 61>	(-58,1)	(-59,1)	(-2,1)	(-45,2)	(-10,1)	(-7,1)	(-4,1)	(-23,1)	(2,1)	(1,0)	(1,0)	(1,0)	(1,0)	(1,0)	(1,0)	(1,0)	
L2C 62>	(1,4)	(-51,1)	(-46,1)	(1,0)	(1,0)	(1,0)	(1,0)	(1,0)	(1,0)	(1,0)	(1,0)	(1,0)	(1,0)	(1,0)	(1,0)	(1,0)	
L2C 63>	(-50,1)	(-63,1)	(-61,1)	(-58,1)	(1,0)	(1,0)	(1,0)	(1,0)	(1,0)	(1,0)	(1,0)	(1,0)	(1,0)	(1,0)	(1,0)	(1,0)	

DRAM Statistics
 CHANNEL 0
 RQ ROW_BUFFER_HIT:       2364  ROW_BUFFER_MISS:        546
 DBUS_CONGESTED:       1656
 WQ ROW_BUFFER_HIT:          0  ROW_BUFFER_MISS:          0  FULL:          0

 AVG_CONGESTED_CYCLE: 6
