
*** ChampSim Multicore Out-of-Order Simulator ***

Warmup Instructions: 1000000
Simulation Instructions: 10000000
Number of CPUs: 1
LLC sets: 2048
LLC ways: 16
Off-chip DRAM Size: 4096 MB Channels: 1 Width: 64-bit Data Rate: 3200 MT/s

CPU 0 runs /home/virtualcse/Data-Prefetching/ChampSim/dpc3_traces/657.xz_s-3167B.champsimtrace.xz
Ultra pref. initializing...
Ultra pref. initialized
Ultra pref. initializing...
Ultra pref. initialized

Warmup complete CPU 0 instructions: 1000003 cycles: 327280 (Simulation time: 0 hr 0 min 2 sec) 

Heartbeat CPU 0 instructions: 10000003 cycles: 6613835 heartbeat IPC: 1.51198 cumulative IPC: 1.43163 (Simulation time: 0 hr 0 min 12 sec) 
Finished CPU 0 instructions: 10000002 cycles: 6729824 cumulative IPC: 1.48592 (Simulation time: 0 hr 0 min 13 sec) 

CPU 0 Branch Prediction Accuracy: 93.1718% MPKI: 10.2238 Average ROB Occupancy at Mispredict: 77.6559

ChampSim completed all CPUs

Region of Interest Statistics

CPU 0 cumulative IPC: 1.48592 instructions: 10000002 cycles: 6729824
L1D TOTAL     ACCESS:    2341089  HIT:    2260503  MISS:      80586
L1D LOAD      ACCESS:    1105327  HIT:    1070814  MISS:      34513
L1D RFO       ACCESS:     602367  HIT:     590269  MISS:      12098
L1D PREFETCH  ACCESS:     633395  HIT:     599420  MISS:      33975
L1D WRITEBACK ACCESS:          0  HIT:          0  MISS:          0
L1D PREFETCH  REQUESTED:    7133883  ISSUED:    6644103  USEFUL:       5254  USELESS:      33408
L1D AVERAGE MISS LATENCY: 88.0167 cycles
L1I TOTAL     ACCESS:     366601  HIT:     366506  MISS:         95
L1I LOAD      ACCESS:     366601  HIT:     366506  MISS:         95
L1I RFO       ACCESS:          0  HIT:          0  MISS:          0
L1I PREFETCH  ACCESS:          0  HIT:          0  MISS:          0
L1I WRITEBACK ACCESS:          0  HIT:          0  MISS:          0
L1I PREFETCH  REQUESTED:          0  ISSUED:          0  USEFUL:          0  USELESS:          0
L1I AVERAGE MISS LATENCY: 74.4632 cycles
L2C TOTAL     ACCESS:     405303  HIT:     267344  MISS:     137959
L2C LOAD      ACCESS:      34488  HIT:      19960  MISS:      14528
L2C RFO       ACCESS:      12090  HIT:       6320  MISS:       5770
L2C PREFETCH  ACCESS:     319373  HIT:     202053  MISS:     117320
L2C WRITEBACK ACCESS:      39352  HIT:      39011  MISS:        341
L2C PREFETCH  REQUESTED:     802760  ISSUED:     606473  USEFUL:       5852  USELESS:     117449
L2C AVERAGE MISS LATENCY: 165.16 cycles
LLC TOTAL     ACCESS:     157717  HIT:      68318  MISS:      89399
LLC LOAD      ACCESS:      14505  HIT:       6064  MISS:       8441
LLC RFO       ACCESS:       5767  HIT:       2836  MISS:       2931
LLC PREFETCH  ACCESS:     117344  HIT:      39643  MISS:      77701
LLC WRITEBACK ACCESS:      20101  HIT:      19775  MISS:        326
LLC PREFETCH  REQUESTED:          0  ISSUED:          0  USEFUL:       2334  USELESS:      60897
LLC AVERAGE MISS LATENCY: 200.601 cycles
Major fault: 0 Minor fault: 3710

L1D -512>	(79,1)	(48,1)	(29,1)	(0,96)	(-32,1)	(137,1)	(1,10)	(13,1)	(-37,0)	(71,0)	(337,0)	(-120,0)	(-410,0)	(154,0)	(-292,0)	(254,0)	
L1D -511>	(1,1)	(0,1)	(1,0)	(1,0)	(1,0)	(1,0)	(1,0)	(1,0)	(1,0)	(1,0)	(1,0)	(1,0)	(1,0)	(1,0)	(1,0)	(1,0)	
L1D -510>	(1,0)	(1,0)	(1,0)	(1,0)	(1,0)	(1,0)	(1,0)	(1,0)	(1,0)	(1,0)	(1,0)	(1,0)	(1,0)	(1,0)	(1,0)	(1,0)	
L1D -509>	(1,1)	(1,0)	(1,0)	(1,0)	(1,0)	(1,0)	(1,0)	(1,0)	(1,0)	(1,0)	(1,0)	(1,0)	(1,0)	(1,0)	(1,0)	(1,0)	
L1D -508>	(1,1)	(1,0)	(1,0)	(1,0)	(1,0)	(1,0)	(1,0)	(1,0)	(1,0)	(1,0)	(1,0)	(1,0)	(1,0)	(1,0)	(1,0)	(1,0)	
L1D -507>	(1,0)	(1,0)	(1,0)	(1,0)	(1,0)	(1,0)	(1,0)	(1,0)	(1,0)	(1,0)	(1,0)	(1,0)	(1,0)	(1,0)	(1,0)	(1,0)	
L1D -506>	(1,0)	(1,0)	(1,0)	(1,0)	(1,0)	(1,0)	(1,0)	(1,0)	(1,0)	(1,0)	(1,0)	(1,0)	(1,0)	(1,0)	(1,0)	(1,0)	
L1D -505>	(1,0)	(1,0)	(1,0)	(1,0)	(1,0)	(1,0)	(1,0)	(1,0)	(1,0)	(1,0)	(1,0)	(1,0)	(1,0)	(1,0)	(1,0)	(1,0)	
L1D -504>	(1,0)	(1,0)	(1,0)	(1,0)	(1,0)	(1,0)	(1,0)	(1,0)	(1,0)	(1,0)	(1,0)	(1,0)	(1,0)	(1,0)	(1,0)	(1,0)	
L1D -503>	(1,0)	(1,0)	(1,0)	(1,0)	(1,0)	(1,0)	(1,0)	(1,0)	(1,0)	(1,0)	(1,0)	(1,0)	(1,0)	(1,0)	(1,0)	(1,0)	
L1D -502>	(1,0)	(1,0)	(1,0)	(1,0)	(1,0)	(1,0)	(1,0)	(1,0)	(1,0)	(1,0)	(1,0)	(1,0)	(1,0)	(1,0)	(1,0)	(1,0)	
L1D -501>	(34,1)	(1,0)	(1,0)	(1,0)	(1,0)	(1,0)	(1,0)	(1,0)	(1,0)	(1,0)	(1,0)	(1,0)	(1,0)	(1,0)	(1,0)	(1,0)	
L1D -500>	(267,1)	(1,0)	(1,0)	(1,0)	(1,0)	(1,0)	(1,0)	(1,0)	(1,0)	(1,0)	(1,0)	(1,0)	(1,0)	(1,0)	(1,0)	(1,0)	
L1D -499>	(1,1)	(1,0)	(1,0)	(1,0)	(1,0)	(1,0)	(1,0)	(1,0)	(1,0)	(1,0)	(1,0)	(1,0)	(1,0)	(1,0)	(1,0)	(1,0)	
L1D -498>	(0,1)	(1,0)	(1,0)	(1,0)	(1,0)	(1,0)	(1,0)	(1,0)	(1,0)	(1,0)	(1,0)	(1,0)	(1,0)	(1,0)	(1,0)	(1,0)	
L1D -497>	(174,1)	(1,1)	(1,0)	(1,0)	(1,0)	(1,0)	(1,0)	(1,0)	(1,0)	(1,0)	(1,0)	(1,0)	(1,0)	(1,0)	(1,0)	(1,0)	
L1D -496>	(1,1)	(0,1)	(54,1)	(1,0)	(1,0)	(1,0)	(1,0)	(1,0)	(1,0)	(1,0)	(1,0)	(1,0)	(1,0)	(1,0)	(1,0)	(1,0)	
L1D -495>	(0,1)	(488,1)	(1,1)	(1,0)	(1,0)	(1,0)	(1,0)	(1,0)	(1,0)	(1,0)	(1,0)	(1,0)	(1,0)	(1,0)	(1,0)	(1,0)	
L1D -494>	(1,0)	(1,0)	(1,0)	(1,0)	(1,0)	(1,0)	(1,0)	(1,0)	(1,0)	(1,0)	(1,0)	(1,0)	(1,0)	(1,0)	(1,0)	(1,0)	
L1D -493>	(364,1)	(1,1)	(1,0)	(1,0)	(1,0)	(1,0)	(1,0)	(1,0)	(1,0)	(1,0)	(1,0)	(1,0)	(1,0)	(1,0)	(1,0)	(1,0)	
L1D -492>	(0,1)	(1,0)	(1,0)	(1,0)	(1,0)	(1,0)	(1,0)	(1,0)	(1,0)	(1,0)	(1,0)	(1,0)	(1,0)	(1,0)	(1,0)	(1,0)	
L1D -491>	(491,1)	(1,0)	(1,0)	(1,0)	(1,0)	(1,0)	(1,0)	(1,0)	(1,0)	(1,0)	(1,0)	(1,0)	(1,0)	(1,0)	(1,0)	(1,0)	
L1D -490>	(239,1)	(0,6)	(486,1)	(1,1)	(-1,2)	(1,0)	(1,0)	(1,0)	(1,0)	(1,0)	(1,0)	(1,0)	(1,0)	(1,0)	(1,0)	(1,0)	
L1D -489>	(196,1)	(179,1)	(-1,1)	(-2,1)	(490,1)	(1,1)	(1,0)	(1,0)	(1,0)	(1,0)	(1,0)	(1,0)	(1,0)	(1,0)	(1,0)	(1,0)	
L1D -488>	(486,1)	(1,0)	(1,0)	(1,0)	(1,0)	(1,0)	(1,0)	(1,0)	(1,0)	(1,0)	(1,0)	(1,0)	(1,0)	(1,0)	(1,0)	(1,0)	
L1D -487>	(1,3)	(487,3)	(486,2)	(1,0)	(1,0)	(1,0)	(1,0)	(1,0)	(1,0)	(1,0)	(1,0)	(1,0)	(1,0)	(1,0)	(1,0)	(1,0)	
L1D -486>	(64,1)	(248,1)	(0,5)	(1,3)	(486,18)	(487,4)	(484,1)	(1,0)	(1,0)	(1,0)	(1,0)	(1,0)	(1,0)	(1,0)	(1,0)	(1,0)	
L1D -485>	(64,1)	(486,3)	(1,0)	(1,0)	(1,0)	(1,0)	(1,0)	(1,0)	(1,0)	(1,0)	(1,0)	(1,0)	(1,0)	(1,0)	(1,0)	(1,0)	
L1D -484>	(0,1)	(1,0)	(1,0)	(1,0)	(1,0)	(1,0)	(1,0)	(1,0)	(1,0)	(1,0)	(1,0)	(1,0)	(1,0)	(1,0)	(1,0)	(1,0)	
L1D -483>	(64,1)	(1,0)	(1,0)	(1,0)	(1,0)	(1,0)	(1,0)	(1,0)	(1,0)	(1,0)	(1,0)	(1,0)	(1,0)	(1,0)	(1,0)	(1,0)	
L1D -482>	(1,1)	(0,1)	(1,0)	(1,0)	(1,0)	(1,0)	(1,0)	(1,0)	(1,0)	(1,0)	(1,0)	(1,0)	(1,0)	(1,0)	(1,0)	(1,0)	
L1D -481>	(479,1)	(34,1)	(1,2)	(330,1)	(481,2)	(1,0)	(1,0)	(1,0)	(1,0)	(1,0)	(1,0)	(1,0)	(1,0)	(1,0)	(1,0)	(1,0)	
L1D -480>	(485,1)	(481,1)	(1,0)	(1,0)	(1,0)	(1,0)	(1,0)	(1,0)	(1,0)	(1,0)	(1,0)	(1,0)	(1,0)	(1,0)	(1,0)	(1,0)	
L1D -479>	(64,1)	(0,1)	(478,3)	(1,0)	(1,0)	(1,0)	(1,0)	(1,0)	(1,0)	(1,0)	(1,0)	(1,0)	(1,0)	(1,0)	(1,0)	(1,0)	
L1D -478>	(478,14)	(479,1)	(0,1)	(1,0)	(1,0)	(1,0)	(1,0)	(1,0)	(1,0)	(1,0)	(1,0)	(1,0)	(1,0)	(1,0)	(1,0)	(1,0)	
L1D -477>	(104,1)	(1,1)	(1,0)	(1,0)	(1,0)	(1,0)	(1,0)	(1,0)	(1,0)	(1,0)	(1,0)	(1,0)	(1,0)	(1,0)	(1,0)	(1,0)	
L1D -476>	(276,1)	(140,1)	(272,1)	(476,3)	(1,0)	(1,0)	(1,0)	(1,0)	(1,0)	(1,0)	(1,0)	(1,0)	(1,0)	(1,0)	(1,0)	(1,0)	
L1D -475>	(0,2)	(245,1)	(-1,4)	(475,1)	(476,1)	(1,0)	(1,0)	(1,0)	(1,0)	(1,0)	(1,0)	(1,0)	(1,0)	(1,0)	(1,0)	(1,0)	
L1D -474>	(474,1)	(0,1)	(-34,1)	(-19,1)	(1,0)	(1,0)	(1,0)	(1,0)	(1,0)	(1,0)	(1,0)	(1,0)	(1,0)	(1,0)	(1,0)	(1,0)	
L1D -473>	(1,2)	(67,1)	(-1,1)	(473,1)	(0,1)	(-34,1)	(1,0)	(1,0)	(1,0)	(1,0)	(1,0)	(1,0)	(1,0)	(1,0)	(1,0)	(1,0)	
L1D -472>	(64,1)	(180,1)	(7,1)	(221,4)	(-1,1)	(472,2)	(1,1)	(1,0)	(1,0)	(1,0)	(1,0)	(1,0)	(1,0)	(1,0)	(1,0)	(1,0)	
L1D -471>	(-1,1)	(1,3)	(470,2)	(0,2)	(469,1)	(486,1)	(487,1)	(1,0)	(1,0)	(1,0)	(1,0)	(1,0)	(1,0)	(1,0)	(1,0)	(1,0)	
L1D -470>	(1,2)	(477,1)	(75,1)	(-25,1)	(-1,1)	(470,8)	(471,4)	(-12,2)	(0,3)	(469,1)	(486,5)	(487,1)	(1,0)	(1,0)	(1,0)	(1,0)	
L1D -469>	(0,2)	(-1,1)	(1,1)	(165,1)	(470,11)	(469,3)	(486,1)	(1,0)	(1,0)	(1,0)	(1,0)	(1,0)	(1,0)	(1,0)	(1,0)	(1,0)	
L1D -468>	(469,3)	(1,1)	(372,2)	(100,1)	(-1,1)	(1,0)	(1,0)	(1,0)	(1,0)	(1,0)	(1,0)	(1,0)	(1,0)	(1,0)	(1,0)	(1,0)	
L1D -467>	(473,1)	(64,1)	(1,2)	(454,2)	(467,1)	(459,1)	(453,1)	(299,1)	(0,1)	(1,0)	(1,0)	(1,0)	(1,0)	(1,0)	(1,0)	(1,0)	
L1D -466>	(0,2)	(227,1)	(1,2)	(467,3)	(1,0)	(1,0)	(1,0)	(1,0)	(1,0)	(1,0)	(1,0)	(1,0)	(1,0)	(1,0)	(1,0)	(1,0)	
L1D -465>	(469,1)	(454,1)	(1,2)	(1,0)	(1,0)	(1,0)	(1,0)	(1,0)	(1,0)	(1,0)	(1,0)	(1,0)	(1,0)	(1,0)	(1,0)	(1,0)	
L1D -464>	(-3,1)	(1,1)	(-17,1)	(1,0)	(1,0)	(1,0)	(1,0)	(1,0)	(1,0)	(1,0)	(1,0)	(1,0)	(1,0)	(1,0)	(1,0)	(1,0)	
L1D -463>	(0,1)	(1,1)	(1,0)	(1,0)	(1,0)	(1,0)	(1,0)	(1,0)	(1,0)	(1,0)	(1,0)	(1,0)	(1,0)	(1,0)	(1,0)	(1,0)	
L1D -462>	(399,1)	(0,2)	(256,1)	(-42,1)	(1,0)	(1,0)	(1,0)	(1,0)	(1,0)	(1,0)	(1,0)	(1,0)	(1,0)	(1,0)	(1,0)	(1,0)	
L1D -461>	(0,1)	(461,1)	(378,1)	(1,0)	(1,0)	(1,0)	(1,0)	(1,0)	(1,0)	(1,0)	(1,0)	(1,0)	(1,0)	(1,0)	(1,0)	(1,0)	
L1D -460>	(0,3)	(1,1)	(285,1)	(332,1)	(460,1)	(458,1)	(1,0)	(1,0)	(1,0)	(1,0)	(1,0)	(1,0)	(1,0)	(1,0)	(1,0)	(1,0)	
L1D -459>	(0,5)	(457,2)	(425,1)	(459,4)	(1,0)	(1,0)	(1,0)	(1,0)	(1,0)	(1,0)	(1,0)	(1,0)	(1,0)	(1,0)	(1,0)	(1,0)	
L1D -458>	(0,5)	(-13,1)	(440,1)	(458,2)	(457,3)	(1,2)	(1,0)	(1,0)	(1,0)	(1,0)	(1,0)	(1,0)	(1,0)	(1,0)	(1,0)	(1,0)	
L1D -457>	(1,6)	(0,9)	(331,1)	(457,17)	(458,4)	(455,2)	(456,1)	(1,0)	(1,0)	(1,0)	(1,0)	(1,0)	(1,0)	(1,0)	(1,0)	(1,0)	
L1D -456>	(64,1)	(141,1)	(379,1)	(0,2)	(457,21)	(298,1)	(453,1)	(456,1)	(1,1)	(1,0)	(1,0)	(1,0)	(1,0)	(1,0)	(1,0)	(1,0)	
L1D -455>	(460,1)	(441,2)	(138,1)	(440,1)	(455,2)	(442,2)	(449,1)	(0,1)	(28,1)	(199,1)	(1,0)	(1,0)	(1,0)	(1,0)	(1,0)	(1,0)	
L1D -454>	(254,1)	(355,1)	(-29,1)	(290,1)	(2,1)	(453,1)	(454,1)	(1,1)	(1,0)	(1,0)	(1,0)	(1,0)	(1,0)	(1,0)	(1,0)	(1,0)	
L1D -453>	(330,1)	(450,1)	(212,1)	(153,1)	(442,1)	(0,6)	(454,1)	(453,1)	(245,1)	(1,0)	(1,0)	(1,0)	(1,0)	(1,0)	(1,0)	(1,0)	
L1D -452>	(-3,1)	(364,1)	(0,1)	(1,1)	(1,0)	(1,0)	(1,0)	(1,0)	(1,0)	(1,0)	(1,0)	(1,0)	(1,0)	(1,0)	(1,0)	(1,0)	
L1D -451>	(1,1)	(364,1)	(450,1)	(451,1)	(1,0)	(1,0)	(1,0)	(1,0)	(1,0)	(1,0)	(1,0)	(1,0)	(1,0)	(1,0)	(1,0)	(1,0)	
L1D -450>	(64,1)	(455,2)	(0,3)	(1,3)	(-10,4)	(451,1)	(1,0)	(1,0)	(1,0)	(1,0)	(1,0)	(1,0)	(1,0)	(1,0)	(1,0)	(1,0)	
L1D -449>	(0,1)	(1,1)	(1,0)	(1,0)	(1,0)	(1,0)	(1,0)	(1,0)	(1,0)	(1,0)	(1,0)	(1,0)	(1,0)	(1,0)	(1,0)	(1,0)	
L1D -448>	(449,1)	(0,1)	(1,1)	(432,2)	(1,0)	(1,0)	(1,0)	(1,0)	(1,0)	(1,0)	(1,0)	(1,0)	(1,0)	(1,0)	(1,0)	(1,0)	
L1D -447>	(64,1)	(381,1)	(0,2)	(447,2)	(1,0)	(1,0)	(1,0)	(1,0)	(1,0)	(1,0)	(1,0)	(1,0)	(1,0)	(1,0)	(1,0)	(1,0)	
L1D -446>	(-9,1)	(443,1)	(-12,1)	(0,2)	(1,0)	(1,0)	(1,0)	(1,0)	(1,0)	(1,0)	(1,0)	(1,0)	(1,0)	(1,0)	(1,0)	(1,0)	
L1D -445>	(435,1)	(64,1)	(414,1)	(0,1)	(449,1)	(129,1)	(-47,1)	(2,1)	(1,1)	(1,0)	(1,0)	(1,0)	(1,0)	(1,0)	(1,0)	(1,0)	
L1D -444>	(450,1)	(-49,1)	(412,1)	(66,1)	(64,1)	(194,2)	(444,3)	(1,3)	(71,1)	(1,0)	(1,0)	(1,0)	(1,0)	(1,0)	(1,0)	(1,0)	
L1D -443>	(64,1)	(250,1)	(0,3)	(438,1)	(1,1)	(-28,1)	(1,0)	(1,0)	(1,0)	(1,0)	(1,0)	(1,0)	(1,0)	(1,0)	(1,0)	(1,0)	
L1D -442>	(64,1)	(181,1)	(442,1)	(343,1)	(1,0)	(1,0)	(1,0)	(1,0)	(1,0)	(1,0)	(1,0)	(1,0)	(1,0)	(1,0)	(1,0)	(1,0)	
L1D -441>	(441,8)	(0,3)	(439,1)	(438,1)	(3,1)	(1,1)	(1,0)	(1,0)	(1,0)	(1,0)	(1,0)	(1,0)	(1,0)	(1,0)	(1,0)	(1,0)	
L1D -440>	(0,3)	(440,2)	(38,1)	(305,1)	(417,1)	(1,0)	(1,0)	(1,0)	(1,0)	(1,0)	(1,0)	(1,0)	(1,0)	(1,0)	(1,0)	(1,0)	
L1D -439>	(251,1)	(64,1)	(444,1)	(0,2)	(1,2)	(439,2)	(267,1)	(356,1)	(1,0)	(1,0)	(1,0)	(1,0)	(1,0)	(1,0)	(1,0)	(1,0)	
L1D -438>	(64,1)	(400,1)	(0,2)	(168,1)	(426,1)	(348,1)	(1,0)	(1,0)	(1,0)	(1,0)	(1,0)	(1,0)	(1,0)	(1,0)	(1,0)	(1,0)	
L1D -437>	(0,3)	(438,5)	(1,4)	(452,1)	(369,1)	(437,2)	(-31,1)	(436,4)	(435,1)	(1,0)	(1,0)	(1,0)	(1,0)	(1,0)	(1,0)	(1,0)	
L1D -436>	(1,5)	(0,1)	(436,28)	(5,1)	(435,2)	(434,1)	(4,1)	(85,1)	(437,2)	(-20,1)	(1,0)	(1,0)	(1,0)	(1,0)	(1,0)	(1,0)	
L1D -435>	(467,1)	(1,1)	(32,1)	(125,1)	(436,7)	(435,10)	(0,2)	(-21,1)	(1,0)	(1,0)	(1,0)	(1,0)	(1,0)	(1,0)	(1,0)	(1,0)	
L1D -434>	(0,2)	(-35,1)	(1,1)	(95,1)	(260,1)	(1,0)	(1,0)	(1,0)	(1,0)	(1,0)	(1,0)	(1,0)	(1,0)	(1,0)	(1,0)	(1,0)	
L1D -433>	(433,1)	(0,2)	(426,1)	(64,1)	(1,1)	(-23,1)	(424,1)	(367,1)	(408,1)	(1,0)	(1,0)	(1,0)	(1,0)	(1,0)	(1,0)	(1,0)	
L1D -432>	(0,2)	(1,2)	(131,1)	(150,1)	(431,2)	(1,0)	(1,0)	(1,0)	(1,0)	(1,0)	(1,0)	(1,0)	(1,0)	(1,0)	(1,0)	(1,0)	
L1D -431>	(5,1)	(436,1)	(0,2)	(45,1)	(64,1)	(412,1)	(257,1)	(12,1)	(432,1)	(299,1)	(1,0)	(1,0)	(1,0)	(1,0)	(1,0)	(1,0)	
L1D -430>	(1,4)	(260,1)	(154,1)	(-56,1)	(431,2)	(439,1)	(265,1)	(0,2)	(429,4)	(2,1)	(1,0)	(1,0)	(1,0)	(1,0)	(1,0)	(1,0)	
L1D -429>	(0,4)	(152,1)	(-51,1)	(429,8)	(1,1)	(428,3)	(1,0)	(1,0)	(1,0)	(1,0)	(1,0)	(1,0)	(1,0)	(1,0)	(1,0)	(1,0)	
L1D -428>	(64,1)	(0,2)	(-15,1)	(1,3)	(291,1)	(-53,1)	(428,15)	(429,11)	(427,5)	(426,1)	(1,0)	(1,0)	(1,0)	(1,0)	(1,0)	(1,0)	
L1D -427>	(427,3)	(384,1)	(0,1)	(433,1)	(8,3)	(428,7)	(1,1)	(-46,1)	(-43,1)	(217,1)	(128,1)	(130,1)	(400,1)	(1,0)	(1,0)	(1,0)	
L1D -426>	(1,1)	(426,1)	(172,1)	(0,1)	(382,1)	(-6,1)	(200,1)	(1,0)	(1,0)	(1,0)	(1,0)	(1,0)	(1,0)	(1,0)	(1,0)	(1,0)	
L1D -425>	(431,2)	(-7,1)	(1,2)	(0,3)	(425,3)	(1,0)	(1,0)	(1,0)	(1,0)	(1,0)	(1,0)	(1,0)	(1,0)	(1,0)	(1,0)	(1,0)	
L1D -424>	(415,1)	(-14,1)	(246,1)	(177,1)	(423,1)	(0,1)	(1,2)	(297,1)	(53,1)	(1,0)	(1,0)	(1,0)	(1,0)	(1,0)	(1,0)	(1,0)	
L1D -423>	(207,1)	(169,1)	(405,1)	(423,7)	(235,1)	(300,1)	(1,3)	(-47,1)	(1,0)	(1,0)	(1,0)	(1,0)	(1,0)	(1,0)	(1,0)	(1,0)	
L1D -422>	(427,2)	(218,1)	(359,1)	(-74,1)	(422,2)	(-59,1)	(372,1)	(34,1)	(0,2)	(421,2)	(1,0)	(1,0)	(1,0)	(1,0)	(1,0)	(1,0)	
L1D -421>	(-38,1)	(125,1)	(164,2)	(259,1)	(90,1)	(1,2)	(134,1)	(421,3)	(422,1)	(0,1)	(1,0)	(1,0)	(1,0)	(1,0)	(1,0)	(1,0)	
L1D -420>	(425,1)	(289,1)	(45,1)	(420,2)	(361,1)	(96,1)	(277,1)	(1,2)	(0,4)	(-57,1)	(421,3)	(1,0)	(1,0)	(1,0)	(1,0)	(1,0)	
L1D -419>	(417,1)	(270,1)	(384,1)	(419,4)	(431,1)	(0,2)	(1,0)	(1,0)	(1,0)	(1,0)	(1,0)	(1,0)	(1,0)	(1,0)	(1,0)	(1,0)	
L1D -418>	(0,2)	(73,1)	(106,1)	(-65,1)	(418,15)	(-14,1)	(24,1)	(1,3)	(464,7)	(419,2)	(417,3)	(1,0)	(1,0)	(1,0)	(1,0)	(1,0)	
L1D -417>	(-17,1)	(0,2)	(404,1)	(417,11)	(333,1)	(60,1)	(418,10)	(1,1)	(416,3)	(293,1)	(1,0)	(1,0)	(1,0)	(1,0)	(1,0)	(1,0)	
L1D -416>	(339,1)	(422,1)	(376,1)	(0,1)	(416,7)	(421,1)	(405,1)	(1,1)	(418,1)	(415,1)	(417,3)	(29,1)	(332,1)	(290,1)	(465,1)	(373,1)	
L1D -415>	(415,5)	(130,1)	(64,1)	(421,1)	(83,1)	(-1,1)	(0,1)	(1,2)	(-21,1)	(-43,1)	(414,1)	(1,0)	(1,0)	(1,0)	(1,0)	(1,0)	
L1D -414>	(392,1)	(354,1)	(0,4)	(415,1)	(416,1)	(1,2)	(-39,1)	(412,1)	(414,6)	(1,0)	(1,0)	(1,0)	(1,0)	(1,0)	(1,0)	(1,0)	
L1D -413>	(180,1)	(298,1)	(0,3)	(290,1)	(-50,1)	(222,1)	(369,1)	(41,1)	(414,9)	(413,8)	(412,2)	(1,0)	(1,0)	(1,0)	(1,0)	(1,0)	
L1D -412>	(0,9)	(285,1)	(1,7)	(423,1)	(413,13)	(71,1)	(7,1)	(2,1)	(-1,2)	(1,0)	(1,0)	(1,0)	(1,0)	(1,0)	(1,0)	(1,0)	
L1D -411>	(332,1)	(0,2)	(114,1)	(1,1)	(-100,1)	(409,2)	(18,1)	(411,17)	(1,0)	(1,0)	(1,0)	(1,0)	(1,0)	(1,0)	(1,0)	(1,0)	
L1D -410>	(1,6)	(23,1)	(385,1)	(64,1)	(78,1)	(110,1)	(246,1)	(410,5)	(1,0)	(1,0)	(1,0)	(1,0)	(1,0)	(1,0)	(1,0)	(1,0)	
L1D -409>	(1,10)	(410,1)	(0,8)	(-1,1)	(67,1)	(137,2)	(3,1)	(139,1)	(351,1)	(289,1)	(173,3)	(64,1)	(403,1)	(409,3)	(415,1)	(297,1)	
L1D -408>	(0,9)	(1,8)	(-1,6)	(293,1)	(410,1)	(139,1)	(245,1)	(-8,1)	(65,1)	(221,1)	(93,1)	(13,1)	(408,1)	(1,0)	(1,0)	(1,0)	
L1D -407>	(0,5)	(-1,9)	(408,3)	(410,1)	(262,1)	(375,1)	(138,1)	(1,3)	(406,2)	(407,2)	(197,1)	(1,0)	(1,0)	(1,0)	(1,0)	(1,0)	
L1D -406>	(93,1)	(0,6)	(1,5)	(383,1)	(245,1)	(406,5)	(324,1)	(370,1)	(405,1)	(357,1)	(414,1)	(407,1)	(1,0)	(1,0)	(1,0)	(1,0)	
L1D -405>	(1,2)	(0,2)	(-80,1)	(-68,1)	(308,1)	(84,1)	(64,1)	(411,1)	(406,4)	(405,5)	(99,1)	(404,4)	(1,0)	(1,0)	(1,0)	(1,0)	
L1D -404>	(410,1)	(0,4)	(1,3)	(25,1)	(367,1)	(362,1)	(404,10)	(405,6)	(403,2)	(1,0)	(1,0)	(1,0)	(1,0)	(1,0)	(1,0)	(1,0)	
L1D -403>	(441,1)	(-20,1)	(371,1)	(403,2)	(402,2)	(404,3)	(1,1)	(1,0)	(1,0)	(1,0)	(1,0)	(1,0)	(1,0)	(1,0)	(1,0)	(1,0)	
L1D -402>	(-42,1)	(1,4)	(77,1)	(0,2)	(10,1)	(333,1)	(-60,1)	(366,1)	(403,10)	(304,1)	(297,1)	(416,1)	(408,1)	(406,1)	(205,1)	(401,3)	
L1D -401>	(-17,1)	(396,1)	(423,1)	(411,1)	(1,3)	(368,1)	(120,1)	(0,1)	(272,1)	(401,2)	(402,2)	(405,1)	(400,2)	(1,0)	(1,0)	(1,0)	
L1D -400>	(288,1)	(338,1)	(64,1)	(0,2)	(400,11)	(303,1)	(135,1)	(401,1)	(413,2)	(-22,1)	(-20,1)	(436,1)	(1,0)	(1,0)	(1,0)	(1,0)	
L1D -399>	(375,1)	(1,5)	(404,1)	(64,1)	(-53,1)	(384,1)	(0,2)	(413,1)	(371,1)	(399,1)	(398,1)	(-33,1)	(400,5)	(1,0)	(1,0)	(1,0)	
L1D -398>	(2,8)	(1,9)	(392,1)	(0,8)	(398,4)	(-87,1)	(-65,1)	(399,4)	(-5,1)	(-18,1)	(143,1)	(302,1)	(348,1)	(-80,1)	(407,1)	(397,4)	
L1D -397>	(1,49)	(2,4)	(64,1)	(0,8)	(-2,1)	(-30,1)	(-35,1)	(324,1)	(13,1)	(374,1)	(398,7)	(397,17)	(156,1)	(144,1)	(1,0)	(1,0)	
L1D -396>	(1,100)	(-50,1)	(0,13)	(395,12)	(386,1)	(396,5)	(-1,2)	(390,4)	(378,1)	(141,2)	(397,4)	(388,1)	(257,1)	(144,1)	(188,1)	(-69,1)	
L1D -395>	(1,22)	(0,15)	(395,21)	(-1,5)	(396,10)	(-78,1)	(390,1)	(236,5)	(257,3)	(20,1)	(363,1)	(388,1)	(386,1)	(368,1)	(394,2)	(-22,1)	
L1D -394>	(1,3)	(399,1)	(64,1)	(394,16)	(233,1)	(-40,1)	(0,5)	(257,1)	(26,1)	(-20,1)	(248,1)	(395,2)	(281,1)	(322,1)	(277,1)	(409,1)	
L1D -393>	(394,1)	(0,4)	(1,4)	(79,1)	(393,1)	(-22,1)	(249,1)	(365,1)	(422,1)	(338,1)	(44,1)	(1,0)	(1,0)	(1,0)	(1,0)	(1,0)	
L1D -392>	(1,10)	(2,5)	(64,1)	(0,2)	(390,1)	(-43,1)	(-30,1)	(212,1)	(391,2)	(9,1)	(435,1)	(392,1)	(-79,1)	(137,1)	(1,0)	(1,0)	
L1D -391>	(0,22)	(391,6)	(397,2)	(1,54)	(-1,2)	(-101,1)	(336,1)	(269,1)	(235,1)	(390,1)	(-91,1)	(407,1)	(379,1)	(113,1)	(392,15)	(236,1)	
L1D -390>	(390,12)	(389,2)	(0,15)	(-1,3)	(236,8)	(1,28)	(395,23)	(226,2)	(-27,1)	(320,1)	(396,7)	(2,8)	(257,8)	(3,1)	(398,1)	(397,1)	
L1D -389>	(389,7)	(259,1)	(64,1)	(356,1)	(0,1)	(1,2)	(388,2)	(329,1)	(447,1)	(1,0)	(1,0)	(1,0)	(1,0)	(1,0)	(1,0)	(1,0)	
L1D -388>	(395,28)	(0,23)	(390,3)	(387,4)	(396,19)	(388,4)	(94,1)	(72,1)	(371,4)	(354,1)	(2,6)	(397,3)	(1,7)	(29,1)	(386,1)	(-36,1)	
L1D -387>	(2,16)	(1,4)	(387,10)	(311,1)	(3,2)	(-74,1)	(278,1)	(233,1)	(169,1)	(388,3)	(0,2)	(375,1)	(-21,1)	(-107,1)	(393,1)	(1,0)	
L1D -386>	(1,21)	(269,1)	(-2,5)	(0,51)	(-1,3)	(395,53)	(396,41)	(386,4)	(388,4)	(390,6)	(257,2)	(385,3)	(397,2)	(64,1)	(391,1)	(340,1)	
L1D -385>	(1,98)	(395,38)	(390,5)	(386,2)	(0,37)	(396,21)	(418,2)	(-2,2)	(385,14)	(24,1)	(384,1)	(397,3)	(-1,3)	(-96,1)	(403,1)	(387,1)	
L1D -384>	(384,25)	(-35,1)	(385,17)	(0,10)	(382,4)	(383,5)	(38,1)	(273,1)	(404,2)	(86,1)	(314,1)	(27,1)	(214,1)	(1,2)	(-38,1)	(286,1)	
L1D -383>	(382,3)	(0,4)	(389,2)	(77,1)	(26,1)	(197,1)	(243,1)	(119,1)	(321,1)	(64,2)	(-16,1)	(58,1)	(208,1)	(1,1)	(383,3)	(226,1)	
L1D -382>	(382,2)	(380,2)	(0,6)	(388,1)	(95,1)	(366,1)	(-42,1)	(383,1)	(1,4)	(-74,1)	(351,1)	(-49,2)	(381,4)	(243,1)	(368,1)	(72,1)	
L1D -381>	(0,6)	(134,1)	(316,1)	(282,1)	(111,1)	(381,17)	(380,5)	(342,1)	(226,1)	(310,1)	(353,1)	(382,1)	(-18,1)	(-17,4)	(1,8)	(1,0)	
L1D -380>	(0,20)	(1,8)	(218,1)	(185,1)	(-93,1)	(64,1)	(347,1)	(408,1)	(370,2)	(-2,1)	(380,17)	(381,9)	(379,4)	(199,1)	(244,1)	(383,1)	
L1D -379>	(1,2)	(380,24)	(384,1)	(341,1)	(249,1)	(208,1)	(180,1)	(378,2)	(0,4)	(379,2)	(226,1)	(-52,1)	(332,1)	(264,1)	(356,1)	(376,1)	
L1D -378>	(378,2)	(0,5)	(343,1)	(-59,1)	(303,1)	(1,2)	(263,1)	(-47,1)	(-58,1)	(377,1)	(1,0)	(1,0)	(1,0)	(1,0)	(1,0)	(1,0)	
L1D -377>	(376,3)	(377,12)	(-4,2)	(-93,2)	(385,2)	(382,1)	(345,1)	(293,2)	(-31,1)	(329,1)	(1,7)	(416,1)	(0,4)	(378,3)	(347,1)	(325,1)	
L1D -376>	(-102,2)	(376,21)	(64,1)	(224,1)	(368,1)	(-86,1)	(322,1)	(332,1)	(279,1)	(0,12)	(212,1)	(250,1)	(35,1)	(457,1)	(377,13)	(452,1)	
L1D -375>	(323,1)	(0,16)	(139,1)	(1,3)	(374,3)	(407,1)	(-26,1)	(-66,1)	(431,1)	(367,2)	(-65,1)	(375,17)	(376,2)	(380,1)	(298,1)	(424,1)	
L1D -374>	(375,7)	(374,16)	(-20,2)	(0,4)	(474,1)	(1,4)	(407,1)	(378,1)	(86,1)	(324,1)	(121,1)	(195,1)	(385,1)	(424,3)	(425,1)	(211,1)	
L1D -373>	(231,1)	(302,1)	(360,1)	(0,3)	(373,4)	(-12,1)	(1,4)	(-56,1)	(162,1)	(147,1)	(295,1)	(2,1)	(374,2)	(1,0)	(1,0)	(1,0)	
L1D -372>	(369,1)	(372,22)	(0,18)	(373,2)	(454,1)	(-110,1)	(410,1)	(-29,1)	(1,11)	(224,1)	(203,1)	(-86,2)	(371,1)	(-85,1)	(151,1)	(-68,1)	
L1D -371>	(1,2)	(354,1)	(298,1)	(40,1)	(-60,1)	(376,2)	(0,6)	(-33,1)	(163,1)	(5,2)	(372,13)	(-66,1)	(293,1)	(365,1)	(371,7)	(1,0)	
L1D -370>	(1,4)	(381,1)	(370,5)	(360,3)	(-1,1)	(399,1)	(349,1)	(289,1)	(242,1)	(-87,1)	(-76,1)	(229,1)	(-4,2)	(0,8)	(369,4)	(278,1)	
L1D -369>	(0,6)	(369,13)	(360,5)	(370,4)	(1,1)	(276,1)	(405,1)	(291,1)	(357,1)	(320,1)	(287,1)	(28,1)	(2,1)	(283,1)	(-1,1)	(94,1)	
L1D -368>	(1,3)	(374,1)	(368,1)	(0,3)	(377,1)	(5,1)	(-59,1)	(306,1)	(367,2)	(-31,1)	(273,1)	(1,0)	(1,0)	(1,0)	(1,0)	(1,0)	
L1D -367>	(14,1)	(368,3)	(372,3)	(0,8)	(369,1)	(357,1)	(-80,1)	(1,4)	(360,1)	(347,1)	(341,1)	(367,7)	(399,1)	(-108,1)	(1,0)	(1,0)	
L1D -366>	(1,2)	(404,1)	(124,1)	(0,2)	(227,1)	(376,1)	(323,1)	(267,1)	(269,1)	(366,2)	(375,1)	(25,1)	(198,1)	(-74,1)	(365,3)	(367,1)	
L1D -365>	(404,3)	(0,4)	(-81,1)	(115,1)	(248,1)	(321,2)	(356,1)	(1,5)	(69,1)	(387,1)	(-1,1)	(366,1)	(254,1)	(-29,1)	(367,1)	(-58,1)	
L1D -364>	(0,4)	(64,1)	(370,1)	(204,1)	(1,1)	(237,1)	(414,1)	(146,1)	(374,1)	(249,1)	(364,10)	(-40,1)	(365,7)	(248,1)	(1,0)	(1,0)	
L1D -363>	(362,4)	(369,3)	(368,2)	(1,5)	(363,3)	(-21,1)	(26,1)	(224,1)	(0,2)	(-24,2)	(64,1)	(297,1)	(326,1)	(438,1)	(-16,1)	(78,1)	
L1D -362>	(0,4)	(1,3)	(316,1)	(28,1)	(283,1)	(278,1)	(351,1)	(362,10)	(-31,1)	(-27,1)	(-48,1)	(161,1)	(-9,1)	(236,1)	(363,3)	(18,1)	
L1D -361>	(361,5)	(328,1)	(1,3)	(64,1)	(0,7)	(24,2)	(346,1)	(387,1)	(21,1)	(347,1)	(-14,1)	(49,1)	(-16,1)	(467,1)	(289,1)	(365,1)	
L1D -360>	(423,1)	(361,2)	(265,1)	(203,1)	(-102,1)	(414,1)	(345,1)	(308,1)	(1,2)	(403,1)	(-74,1)	(-94,1)	(360,1)	(382,1)	(1,0)	(1,0)	
L1D -359>	(335,1)	(-20,1)	(366,1)	(0,3)	(364,1)	(361,1)	(1,9)	(360,16)	(3,1)	(152,1)	(358,1)	(-69,1)	(-28,1)	(384,1)	(1,0)	(1,0)	
L1D -358>	(1,2)	(0,7)	(393,1)	(-4,1)	(-45,1)	(38,1)	(363,1)	(-89,1)	(-70,1)	(51,1)	(154,1)	(232,1)	(372,1)	(356,1)	(357,5)	(1,0)	
L1D -357>	(39,1)	(357,8)	(0,2)	(-26,6)	(155,1)	(-135,1)	(302,1)	(392,1)	(1,2)	(33,1)	(-37,1)	(6,1)	(-75,1)	(323,1)	(192,1)	(358,1)	
L1D -356>	(0,1)	(268,1)	(176,1)	(-79,1)	(1,4)	(-62,4)	(150,1)	(-36,1)	(357,7)	(9,1)	(356,5)	(1,0)	(1,0)	(1,0)	(1,0)	(1,0)	
L1D -355>	(1,3)	(356,15)	(79,1)	(235,1)	(245,1)	(-105,1)	(319,1)	(0,3)	(-14,1)	(270,2)	(-4,2)	(318,1)	(345,1)	(-41,1)	(-122,1)	(-18,4)	
L1D -354>	(0,5)	(1,1)	(64,1)	(360,1)	(314,1)	(354,3)	(355,1)	(87,1)	(371,1)	(54,1)	(424,1)	(337,1)	(1,0)	(1,0)	(1,0)	(1,0)	
L1D -353>	(353,1)	(324,1)	(-51,1)	(-92,1)	(296,1)	(347,1)	(0,6)	(348,1)	(297,1)	(11,2)	(142,1)	(354,4)	(293,1)	(86,1)	(-149,1)	(-68,1)	
L1D -352>	(1,1)	(354,1)	(17,1)	(388,1)	(0,2)	(255,1)	(412,3)	(168,1)	(257,1)	(353,1)	(-31,1)	(139,1)	(193,1)	(-17,1)	(227,1)	(142,1)	
L1D -351>	(350,2)	(351,8)	(0,4)	(374,1)	(378,1)	(405,1)	(203,1)	(269,1)	(1,4)	(-72,1)	(-24,1)	(-113,1)	(165,1)	(-58,1)	(-69,1)	(352,7)	
L1D -350>	(0,5)	(350,5)	(348,5)	(374,2)	(1,5)	(351,15)	(-63,2)	(449,1)	(12,1)	(391,1)	(453,1)	(442,1)	(341,1)	(451,1)	(363,2)	(264,1)	
L1D -349>	(0,9)	(350,8)	(348,7)	(338,2)	(435,1)	(24,3)	(-26,1)	(11,1)	(448,1)	(349,15)	(363,2)	(32,1)	(153,2)	(457,1)	(409,1)	(64,2)	
L1D -348>	(435,2)	(347,3)	(348,20)	(192,1)	(-3,1)	(276,1)	(339,1)	(0,5)	(1,2)	(437,1)	(383,1)	(176,1)	(104,1)	(335,1)	(-31,1)	(354,1)	
L1D -347>	(244,1)	(346,7)	(0,7)	(347,14)	(330,1)	(348,1)	(1,6)	(446,1)	(16,1)	(437,1)	(359,1)	(-63,1)	(418,1)	(64,1)	(300,1)	(-36,1)	
L1D -346>	(346,63)	(424,1)	(64,1)	(347,8)	(0,6)	(345,3)	(329,3)	(330,4)	(384,2)	(264,1)	(-16,1)	(344,1)	(59,1)	(168,1)	(-92,1)	(1,1)	
L1D -345>	(-114,1)	(64,1)	(0,7)	(343,5)	(346,4)	(345,17)	(344,5)	(1,2)	(-94,1)	(3,1)	(352,1)	(-17,1)	(89,1)	(181,3)	(373,1)	(165,1)	
L1D -344>	(0,7)	(343,7)	(344,33)	(345,5)	(403,5)	(410,1)	(216,1)	(-108,1)	(295,1)	(41,1)	(420,2)	(1,3)	(376,1)	(81,1)	(386,1)	(256,1)	
L1D -343>	(341,7)	(1,8)	(342,8)	(-32,1)	(343,26)	(344,15)	(339,6)	(340,4)	(329,2)	(330,4)	(346,2)	(349,1)	(64,1)	(390,1)	(294,1)	(193,1)	
L1D -342>	(-32,1)	(342,26)	(341,10)	(0,6)	(190,3)	(343,13)	(339,1)	(327,1)	(348,2)	(332,1)	(-118,1)	(347,1)	(270,1)	(321,1)	(1,1)	(-29,1)	
L1D -341>	(0,19)	(339,5)	(341,45)	(340,2)	(338,3)	(342,16)	(36,1)	(189,6)	(190,1)	(3,1)	(390,1)	(-106,1)	(162,1)	(303,1)	(324,2)	(1,3)	
L1D -340>	(341,2)	(342,2)	(339,1)	(0,4)	(1,5)	(346,1)	(202,1)	(-142,1)	(299,1)	(327,1)	(380,1)	(318,1)	(351,1)	(116,1)	(340,4)	(-4,2)	
L1D -339>	(130,1)	(64,2)	(0,7)	(48,2)	(338,9)	(340,8)	(341,10)	(339,30)	(337,4)	(299,1)	(-5,2)	(1,6)	(-4,4)	(343,1)	(344,1)	(411,1)	
L1D -338>	(338,58)	(337,12)	(0,9)	(-6,1)	(335,5)	(336,6)	(322,1)	(48,2)	(341,8)	(326,1)	(344,1)	(339,18)	(342,3)	(183,1)	(1,1)	(343,1)	
L1D -337>	(390,1)	(48,3)	(1,6)	(337,31)	(0,12)	(336,6)	(335,5)	(334,2)	(338,21)	(341,1)	(208,1)	(89,1)	(342,3)	(252,1)	(262,1)	(54,1)	
L1D -336>	(48,3)	(0,11)	(336,21)	(335,2)	(337,12)	(334,11)	(338,2)	(339,1)	(1,3)	(312,1)	(-8,1)	(364,1)	(-118,1)	(290,1)	(341,1)	(-7,1)	
L1D -335>	(0,12)	(1,2)	(335,17)	(332,10)	(48,2)	(352,1)	(129,1)	(338,3)	(336,6)	(337,2)	(-3,1)	(306,2)	(342,1)	(346,1)	(-17,1)	(-113,1)	
L1D -334>	(48,14)	(-34,1)	(44,1)	(64,2)	(334,14)	(1,3)	(0,21)	(333,4)	(257,2)	(256,1)	(332,2)	(335,2)	(273,1)	(319,1)	(294,1)	(-89,1)	
L1D -333>	(48,4)	(334,15)	(333,37)	(0,16)	(-1,2)	(332,4)	(256,6)	(335,5)	(313,1)	(-3,1)	(337,1)	(336,3)	(309,1)	(338,1)	(301,1)	(292,1)	
L1D -332>	(44,5)	(332,7)	(172,1)	(0,4)	(333,4)	(335,2)	(338,4)	(132,1)	(1,5)	(314,1)	(242,2)	(270,1)	(275,1)	(-19,1)	(272,1)	(-98,1)	
L1D -331>	(44,8)	(331,3)	(1,1)	(0,4)	(257,2)	(333,1)	(334,4)	(336,1)	(253,1)	(378,1)	(375,1)	(386,1)	(374,1)	(70,1)	(-44,3)	(-42,1)	
L1D -330>	(0,7)	(-136,1)	(44,6)	(256,2)	(333,3)	(330,2)	(-152,1)	(365,1)	(-58,1)	(349,1)	(1,3)	(335,1)	(64,1)	(428,1)	(363,1)	(-123,1)	
L1D -329>	(328,3)	(329,3)	(412,1)	(110,1)	(0,15)	(324,1)	(330,7)	(1,5)	(44,2)	(281,1)	(278,1)	(251,1)	(356,1)	(-56,1)	(209,1)	(383,1)	
L1D -328>	(334,2)	(326,2)	(328,3)	(1,9)	(327,4)	(361,6)	(0,11)	(182,1)	(286,1)	(10,1)	(305,1)	(262,1)	(457,1)	(69,1)	(329,5)	(394,1)	
L1D -327>	(326,4)	(327,28)	(328,4)	(0,14)	(324,4)	(325,2)	(475,1)	(280,1)	(364,1)	(1,2)	(278,1)	(235,1)	(67,1)	(385,1)	(301,1)	(-28,1)	
L1D -326>	(380,2)	(327,26)	(360,1)	(0,5)	(326,6)	(324,1)	(325,4)	(337,1)	(215,1)	(237,1)	(-162,1)	(339,1)	(-13,1)	(1,5)	(23,1)	(224,1)	
L1D -325>	(330,4)	(326,3)	(325,10)	(255,1)	(-75,1)	(263,1)	(-76,1)	(238,1)	(279,1)	(0,5)	(64,1)	(341,1)	(-15,1)	(-17,2)	(1,2)	(-81,2)	
L1D -324>	(33,5)	(404,1)	(324,3)	(64,1)	(-129,1)	(252,1)	(315,1)	(0,2)	(52,1)	(-43,1)	(1,2)	(3,1)	(-156,1)	(340,1)	(66,1)	(150,1)	
L1D -323>	(33,7)	(322,2)	(0,3)	(323,2)	(21,1)	(-8,1)	(311,1)	(321,1)	(341,1)	(324,9)	(1,1)	(399,1)	(188,1)	(269,2)	(270,1)	(1,0)	
L1D -322>	(33,5)	(320,2)	(195,1)	(321,5)	(322,27)	(0,15)	(1,3)	(186,1)	(187,2)	(323,19)	(-84,1)	(327,1)	(277,1)	(11,1)	(-2,1)	(110,1)	
L1D -321>	(33,8)	(320,7)	(1,4)	(321,13)	(322,13)	(0,7)	(-46,1)	(68,1)	(18,1)	(327,1)	(162,1)	(295,1)	(30,1)	(309,1)	(341,1)	(-33,1)	
L1D -320>	(33,11)	(0,23)	(320,38)	(319,4)	(1,8)	(171,1)	(321,4)	(227,5)	(37,1)	(186,2)	(322,7)	(187,1)	(325,1)	(326,1)	(271,1)	(383,1)	
L1D -319>	(33,7)	(319,40)	(367,8)	(0,15)	(320,24)	(325,3)	(321,3)	(322,3)	(1,2)	(318,2)	(297,1)	(158,1)	(3,1)	(335,1)	(276,1)	(-80,1)	
L1D -318>	(0,19)	(404,1)	(33,7)	(319,22)	(323,1)	(324,2)	(279,1)	(366,1)	(314,1)	(8,1)	(311,1)	(1,6)	(-27,1)	(307,1)	(351,1)	(284,1)	
L1D -317>	(318,8)	(1,4)	(317,6)	(344,1)	(-23,1)	(0,10)	(40,1)	(323,2)	(64,1)	(33,2)	(297,1)	(342,1)	(87,1)	(273,1)	(319,1)	(403,1)	
L1D -316>	(0,12)	(317,5)	(316,29)	(1,8)	(343,3)	(315,3)	(314,4)	(261,1)	(328,1)	(345,1)	(322,1)	(321,2)	(364,1)	(287,1)	(170,1)	(490,1)	
L1D -315>	(0,4)	(315,9)	(316,21)	(151,1)	(314,1)	(227,3)	(320,3)	(319,2)	(268,2)	(169,1)	(-126,1)	(335,2)	(-43,1)	(-64,1)	(4,1)	(1,3)	
L1D -314>	(0,5)	(313,8)	(314,2)	(37,2)	(318,2)	(-68,2)	(277,1)	(127,1)	(212,1)	(319,1)	(64,1)	(1,8)	(290,1)	(-102,1)	(272,1)	(385,1)	
L1D -313>	(0,6)	(313,18)	(312,5)	(-1,2)	(1,6)	(403,2)	(-49,1)	(301,1)	(333,2)	(185,2)	(235,1)	(282,1)	(205,1)	(395,1)	(271,1)	(22,1)	
L1D -312>	(316,4)	(311,8)	(310,4)	(313,7)	(64,2)	(312,11)	(-1,12)	(-139,1)	(186,1)	(386,1)	(1,11)	(0,6)	(317,1)	(4,1)	(219,2)	(-130,1)	
L1D -311>	(0,4)	(311,32)	(310,7)	(312,5)	(1,8)	(-1,2)	(-159,1)	(281,1)	(295,1)	(-44,1)	(105,1)	(289,1)	(335,1)	(64,1)	(316,1)	(309,1)	
L1D -310>	(311,16)	(309,11)	(1,9)	(310,23)	(0,16)	(-160,2)	(-159,1)	(67,1)	(145,1)	(-100,1)	(22,1)	(316,1)	(50,1)	(351,1)	(381,1)	(308,1)	
L1D -309>	(22,3)	(1,8)	(309,15)	(310,7)	(308,5)	(0,20)	(307,3)	(-152,1)	(353,1)	(143,1)	(183,1)	(342,1)	(-109,1)	(-48,1)	(-33,1)	(237,1)	
L1D -308>	(-18,2)	(309,11)	(314,2)	(0,17)	(302,2)	(306,3)	(308,29)	(-110,1)	(278,1)	(153,1)	(22,5)	(1,9)	(336,1)	(191,1)	(158,1)	(351,1)	
L1D -307>	(307,18)	(1,7)	(22,12)	(306,7)	(296,3)	(297,2)	(354,2)	(305,3)	(298,4)	(2,1)	(173,1)	(299,2)	(315,1)	(-23,1)	(0,7)	(308,25)	
L1D -306>	(1,5)	(306,15)	(22,14)	(307,14)	(0,26)	(296,6)	(-71,2)	(312,3)	(360,1)	(-175,1)	(65,1)	(329,1)	(287,1)	(197,1)	(272,1)	(214,1)	
L1D -305>	(0,11)	(64,2)	(29,1)	(1,6)	(305,11)	(306,2)	(118,1)	(310,3)	(266,1)	(271,1)	(-103,1)	(-56,1)	(386,1)	(400,3)	(139,1)	(384,1)	
L1D -304>	(304,5)	(0,6)	(303,3)	(1,4)	(364,5)	(305,3)	(64,1)	(269,1)	(60,1)	(353,1)	(320,1)	(140,1)	(283,2)	(-3,1)	(309,1)	(302,1)	
L1D -303>	(303,13)	(304,15)	(1,3)	(306,4)	(307,2)	(296,2)	(134,1)	(305,5)	(0,7)	(187,1)	(154,1)	(178,1)	(207,1)	(-39,1)	(49,1)	(299,1)	
L1D -302>	(0,7)	(375,1)	(303,7)	(1,5)	(45,1)	(166,1)	(-121,1)	(8,1)	(205,1)	(453,1)	(-39,1)	(262,1)	(302,5)	(307,1)	(344,1)	(373,1)	
L1D -301>	(0,6)	(-80,2)	(1,5)	(300,3)	(301,9)	(-79,2)	(302,4)	(374,1)	(14,1)	(74,1)	(168,1)	(186,1)	(496,1)	(318,2)	(200,1)	(304,1)	
L1D -300>	(306,2)	(2,5)	(-58,1)	(0,23)	(300,24)	(301,21)	(299,1)	(303,2)	(65,2)	(116,1)	(1,10)	(-161,1)	(146,1)	(-55,1)	(-12,1)	(12,1)	
L1D -299>	(11,8)	(0,14)	(298,3)	(280,1)	(1,15)	(299,15)	(300,4)	(-4,2)	(309,1)	(305,2)	(-121,1)	(271,1)	(-167,1)	(170,1)	(245,1)	(389,1)	
L1D -298>	(1,32)	(11,24)	(0,68)	(-1,20)	(298,58)	(388,3)	(297,8)	(21,1)	(299,13)	(278,7)	(-30,2)	(-79,2)	(390,7)	(-78,9)	(427,3)	(396,2)	
L1D -297>	(11,31)	(-36,2)	(297,43)	(0,16)	(8,1)	(313,1)	(296,2)	(298,13)	(277,1)	(1,15)	(300,4)	(192,1)	(306,1)	(-8,1)	(63,1)	(302,1)	
L1D -296>	(0,18)	(11,43)	(-29,12)	(-110,4)	(314,7)	(296,9)	(1,4)	(297,5)	(295,5)	(127,1)	(307,1)	(2,1)	(-12,1)	(-102,1)	(257,3)	(10,1)	
L1D -295>	(11,35)	(1,4)	(296,12)	(0,8)	(295,13)	(131,1)	(301,1)	(306,1)	(10,1)	(327,1)	(8,1)	(256,1)	(290,1)	(160,1)	(298,1)	(272,1)	
L1D -294>	(11,38)	(0,22)	(160,1)	(1,6)	(294,26)	(295,2)	(293,1)	(298,5)	(299,4)	(7,1)	(284,1)	(144,1)	(372,1)	(236,2)	(317,1)	(267,1)	
L1D -293>	(10,4)	(11,6)	(298,6)	(293,19)	(291,2)	(294,6)	(0,12)	(292,2)	(5,1)	(1,5)	(160,1)	(208,1)	(-90,1)	(-169,1)	(339,1)	(209,1)	
L1D -292>	(2,3)	(293,6)	(292,11)	(67,3)	(291,2)	(295,1)	(0,7)	(298,1)	(313,1)	(148,1)	(-141,1)	(447,1)	(186,1)	(221,1)	(1,3)	(297,3)	
L1D -291>	(64,2)	(290,3)	(291,16)	(292,15)	(1,14)	(296,6)	(348,3)	(0,13)	(126,1)	(59,1)	(216,1)	(379,1)	(259,1)	(2,1)	(4,1)	(-126,1)	
L1D -290>	(1,34)	(390,1)	(290,25)	(289,8)	(65,68)	(-2,1)	(288,7)	(294,1)	(-9,1)	(345,1)	(0,6)	(295,1)	(-8,2)	(-7,1)	(249,1)	(292,1)	
L1D -289>	(0,10)	(294,3)	(289,28)	(288,5)	(1,5)	(-25,2)	(290,7)	(306,1)	(29,1)	(199,1)	(396,1)	(281,1)	(363,1)	(255,1)	(-92,1)	(323,1)	
L1D -288>	(240,1)	(287,7)	(288,42)	(0,16)	(189,1)	(286,4)	(1,12)	(289,6)	(285,10)	(290,2)	(294,2)	(344,1)	(198,1)	(293,1)	(-65,1)	(333,1)	
L1D -287>	(0,28)	(293,6)	(64,2)	(286,5)	(1,6)	(287,50)	(288,23)	(-1,2)	(-63,2)	(189,5)	(186,1)	(290,1)	(-33,2)	(141,1)	(-64,1)	(-217,1)	
L1D -286>	(-57,6)	(-67,6)	(286,11)	(285,10)	(287,30)	(392,2)	(-1,2)	(0,5)	(1,6)	(292,4)	(-22,1)	(101,1)	(209,1)	(291,2)	(138,1)	(299,1)	
L1D -285>	(285,17)	(286,8)	(284,2)	(0,4)	(1,3)	(299,2)	(315,2)	(288,7)	(-22,1)	(-6,1)	(-9,1)	(291,1)	(290,3)	(7,1)	(-35,1)	(293,1)	
L1D -284>	(289,4)	(1,9)	(-1,1)	(287,3)	(283,2)	(284,18)	(285,6)	(290,3)	(0,7)	(146,1)	(-14,2)	(198,1)	(252,1)	(400,1)	(227,1)	(256,1)	
L1D -283>	(1,4)	(289,3)	(0,15)	(283,10)	(282,11)	(273,2)	(287,3)	(284,4)	(290,2)	(270,1)	(-39,1)	(50,1)	(357,1)	(226,1)	(298,1)	(-41,1)	
L1D -282>	(64,2)	(1,8)	(281,2)	(282,46)	(283,14)	(273,4)	(286,3)	(0,13)	(-120,5)	(287,2)	(168,1)	(302,1)	(254,1)	(226,1)	(230,1)	(185,1)	
L1D -281>	(286,13)	(287,5)	(0,12)	(281,22)	(282,40)	(396,2)	(1,2)	(415,5)	(404,2)	(-36,1)	(-54,1)	(74,1)	(272,1)	(-40,1)	(274,1)	(64,2)	
L1D -280>	(280,7)	(0,8)	(64,2)	(235,1)	(287,1)	(278,2)	(1,2)	(285,2)	(341,1)	(250,1)	(-227,1)	(395,1)	(111,1)	(270,1)	(-170,1)	(286,2)	
L1D -279>	(0,11)	(282,6)	(-135,1)	(273,4)	(278,1)	(274,1)	(279,8)	(280,8)	(-11,1)	(285,3)	(284,5)	(-9,1)	(-92,1)	(11,1)	(8,1)	(32,1)	
L1D -278>	(1,27)	(283,10)	(0,11)	(278,67)	(277,7)	(274,7)	(-66,23)	(279,13)	(-82,1)	(284,2)	(112,1)	(262,1)	(223,1)	(260,1)	(-38,1)	(-119,1)	
L1D -277>	(1,30)	(277,55)	(282,4)	(0,26)	(276,6)	(301,3)	(278,26)	(273,4)	(-128,2)	(191,1)	(298,1)	(283,3)	(9,1)	(304,1)	(180,1)	(172,1)	
L1D -276>	(1,42)	(0,32)	(264,1)	(282,7)	(275,4)	(276,97)	(273,2)	(283,1)	(277,16)	(274,2)	(235,4)	(-1,2)	(278,1)	(279,1)	(281,1)	(-179,1)	
L1D -275>	(1,43)	(0,13)	(276,22)	(281,3)	(275,41)	(280,3)	(-2,1)	(136,1)	(271,1)	(-1,1)	(338,1)	(286,1)	(278,1)	(146,1)	(-21,1)	(-108,1)	
L1D -274>	(1,71)	(135,5)	(274,9)	(273,2)	(294,3)	(333,1)	(280,5)	(0,14)	(275,8)	(279,4)	(136,2)	(64,1)	(295,1)	(346,1)	(268,1)	(401,1)	
L1D -273>	(1,85)	(0,20)	(-136,2)	(135,13)	(136,24)	(274,8)	(273,5)	(278,4)	(-54,15)	(195,1)	(-2,2)	(272,4)	(-1,4)	(279,2)	(-135,2)	(3,1)	
L1D -272>	(0,25)	(1,40)	(-165,1)	(272,6)	(136,5)	(278,8)	(137,3)	(-1,29)	(276,8)	(-80,2)	(275,2)	(264,2)	(277,5)	(135,24)	(-136,5)	(280,2)	
L1D -271>	(0,30)	(276,3)	(-1,21)	(1,5)	(272,2)	(135,5)	(271,1)	(136,1)	(277,3)	(4,1)	(131,1)	(64,1)	(200,1)	(434,1)	(375,1)	(327,1)	
L1D -270>	(0,19)	(275,3)	(-1,30)	(135,2)	(271,9)	(269,2)	(270,3)	(359,1)	(416,1)	(362,1)	(-13,2)	(202,1)	(345,2)	(191,1)	(321,1)	(1,15)	
L1D -269>	(0,18)	(1,6)	(-1,20)	(269,12)	(268,7)	(-57,3)	(270,5)	(-141,1)	(275,3)	(50,1)	(-49,1)	(304,1)	(-26,1)	(-37,1)	(264,1)	(-76,1)	
L1D -268>	(0,11)	(-57,3)	(-1,4)	(266,2)	(157,1)	(273,4)	(141,1)	(274,4)	(388,1)	(279,1)	(1,2)	(85,1)	(268,6)	(172,1)	(145,1)	(265,1)	
L1D -267>	(272,7)	(278,2)	(0,4)	(-1,5)	(266,7)	(267,27)	(1,3)	(-2,2)	(-61,1)	(274,2)	(-60,1)	(317,1)	(-117,1)	(196,1)	(237,1)	(-123,1)	
L1D -266>	(272,4)	(266,52)	(0,24)	(267,9)	(337,2)	(64,2)	(265,2)	(302,2)	(258,1)	(1,8)	(96,1)	(370,1)	(42,1)	(248,1)	(-74,1)	(179,1)	
L1D -265>	(271,4)	(265,19)	(1,10)	(0,19)	(-1,2)	(266,3)	(264,1)	(158,1)	(321,1)	(-110,1)	(163,1)	(107,1)	(-145,1)	(250,1)	(287,1)	(326,1)	
L1D -264>	(0,12)	(262,2)	(265,1)	(270,4)	(264,37)	(263,4)	(64,2)	(-1,1)	(269,3)	(-7,1)	(148,1)	(82,1)	(255,1)	(217,1)	(266,1)	(153,1)	
L1D -263>	(262,10)	(263,24)	(264,5)	(269,4)	(0,8)	(268,3)	(-70,1)	(1,6)	(261,3)	(-24,1)	(343,2)	(230,1)	(448,1)	(164,1)	(-212,2)	(151,1)	
L1D -262>	(0,9)	(261,8)	(263,4)	(262,79)	(1,11)	(64,2)	(268,2)	(-136,2)	(275,2)	(-21,2)	(231,1)	(126,1)	(247,1)	(-44,1)	(234,1)	(421,1)	
L1D -261>	(266,2)	(0,20)	(-57,1)	(260,14)	(1,9)	(261,125)	(262,21)	(263,3)	(264,1)	(-25,1)	(6,1)	(2,1)	(267,2)	(48,1)	(276,1)	(-110,1)	
L1D -260>	(265,2)	(260,65)	(259,6)	(0,19)	(172,2)	(261,13)	(258,1)	(1,3)	(330,1)	(7,1)	(255,1)	(213,0)	(-1,1)	(266,1)	(64,1)	(191,0)	
L1D -259>	(264,4)	(281,2)	(0,23)	(259,82)	(260,36)	(116,2)	(98,2)	(-85,6)	(265,2)	(258,7)	(1,5)	(436,1)	(402,1)	(333,1)	(236,1)	(-195,1)	
L1D -258>	(263,3)	(0,24)	(1,5)	(259,13)	(258,17)	(257,2)	(98,1)	(261,3)	(264,5)	(-62,1)	(-109,1)	(143,1)	(248,1)	(384,1)	(408,1)	(99,1)	
L1D -257>	(244,2)	(348,2)	(0,20)	(257,39)	(172,3)	(256,9)	(260,3)	(264,1)	(254,1)	(258,3)	(1,8)	(-63,1)	(262,2)	(64,1)	(442,1)	(243,2)	
L1D -256>	(261,3)	(0,16)	(255,12)	(256,68)	(-10,1)	(257,30)	(259,1)	(260,2)	(128,1)	(64,1)	(-1,1)	(95,2)	(1,14)	(7,1)	(227,1)	(-20,2)	
L1D -255>	(261,2)	(0,24)	(255,44)	(254,14)	(257,2)	(-20,2)	(291,2)	(10,1)	(260,4)	(17,1)	(256,20)	(296,2)	(163,1)	(103,1)	(-22,1)	(226,1)	
L1D -254>	(255,14)	(260,4)	(298,3)	(-27,1)	(254,17)	(0,14)	(-68,3)	(-40,2)	(1,7)	(-76,1)	(221,1)	(238,1)	(48,1)	(-71,1)	(271,1)	(264,1)	
L1D -253>	(258,5)	(253,17)	(0,12)	(251,2)	(-46,3)	(252,1)	(174,1)	(314,1)	(168,1)	(103,1)	(50,1)	(-155,1)	(54,1)	(134,1)	(313,1)	(242,1)	
L1D -252>	(0,14)	(1,5)	(257,5)	(252,25)	(253,14)	(251,5)	(-190,1)	(-3,1)	(-7,1)	(382,1)	(64,2)	(120,2)	(-195,1)	(263,1)	(100,1)	(314,1)	
L1D -251>	(0,15)	(1,9)	(249,3)	(357,7)	(-9,3)	(277,2)	(257,2)	(252,6)	(251,26)	(298,2)	(-168,1)	(242,1)	(243,1)	(73,1)	(-58,1)	(155,1)	
L1D -250>	(255,2)	(256,4)	(0,22)	(251,12)	(250,27)	(253,2)	(1,1)	(372,4)	(373,4)	(-14,1)	(243,1)	(266,1)	(71,1)	(195,1)	(366,1)	(5,1)	
L1D -249>	(250,11)	(249,25)	(248,5)	(377,2)	(255,2)	(393,1)	(372,2)	(-14,1)	(358,1)	(280,1)	(444,1)	(65,1)	(337,1)	(1,7)	(0,14)	(260,1)	
L1D -248>	(248,38)	(249,14)	(253,5)	(125,2)	(1,12)	(0,21)	(247,2)	(-30,2)	(254,2)	(376,2)	(230,1)	(-202,1)	(142,1)	(290,1)	(-29,1)	(-85,1)	
L1D -247>	(252,5)	(0,16)	(253,6)	(248,11)	(247,17)	(314,2)	(271,9)	(246,1)	(1,8)	(104,1)	(-207,1)	(-197,1)	(326,1)	(308,1)	(-146,1)	(74,1)	
L1D -246>	(0,12)	(-15,2)	(246,26)	(247,7)	(251,2)	(-14,5)	(1,7)	(281,4)	(245,1)	(347,1)	(411,1)	(253,1)	(91,1)	(384,1)	(61,1)	(181,1)	
L1D -245>	(0,10)	(246,5)	(1,4)	(-4,1)	(245,7)	(146,1)	(370,2)	(87,1)	(62,1)	(-55,1)	(-206,1)	(221,1)	(59,1)	(110,1)	(397,1)	(192,1)	
L1D -244>	(250,3)	(243,10)	(-168,4)	(249,6)	(0,6)	(247,2)	(1,1)	(422,1)	(186,1)	(490,1)	(55,1)	(80,1)	(-130,1)	(179,1)	(-126,1)	(437,1)	
L1D -243>	(244,14)	(243,64)	(1,14)	(242,2)	(0,10)	(-99,1)	(95,1)	(62,1)	(-241,1)	(263,2)	(83,1)	(-35,1)	(126,1)	(351,1)	(232,1)	(-51,1)	
L1D -242>	(64,3)	(0,11)	(242,23)	(243,26)	(247,3)	(274,5)	(1,9)	(248,2)	(427,6)	(240,1)	(293,1)	(318,1)	(-52,1)	(137,1)	(241,8)	(269,1)	
L1D -241>	(0,6)	(240,10)	(242,5)	(1,6)	(241,23)	(64,2)	(246,2)	(-116,1)	(18,1)	(247,1)	(167,1)	(213,1)	(353,1)	(344,1)	(362,1)	(-102,1)	
L1D -240>	(240,26)	(0,20)	(-57,2)	(241,17)	(287,1)	(298,1)	(251,1)	(1,9)	(245,1)	(246,1)	(48,1)	(-14,1)	(-187,1)	(-155,1)	(127,1)	(348,1)	
L1D -239>	(244,2)	(245,5)	(0,30)	(240,13)	(321,1)	(-15,1)	(236,1)	(239,6)	(99,1)	(43,1)	(1,12)	(172,1)	(65,1)	(140,1)	(293,1)	(349,1)	
L1D -238>	(2,1)	(243,1)	(244,11)	(238,10)	(237,1)	(0,15)	(147,1)	(235,6)	(236,6)	(239,10)	(223,1)	(1,14)	(28,1)	(214,1)	(91,1)	(193,1)	
L1D -237>	(242,7)	(316,1)	(0,17)	(238,3)	(1,8)	(119,1)	(457,1)	(64,2)	(243,1)	(-37,5)	(130,1)	(312,1)	(49,1)	(268,1)	(124,1)	(236,1)	
L1D -236>	(241,2)	(0,5)	(235,5)	(-23,1)	(242,2)	(253,1)	(162,1)	(238,2)	(99,1)	(52,1)	(236,9)	(237,13)	(281,1)	(339,1)	(-70,1)	(278,1)	
L1D -235>	(1,7)	(64,3)	(241,3)	(0,10)	(-67,2)	(235,14)	(238,3)	(236,4)	(234,1)	(251,1)	(240,1)	(-9,1)	(170,1)	(344,1)	(301,1)	(-161,1)	
L1D -234>	(0,4)	(239,4)	(1,7)	(235,14)	(236,3)	(234,4)	(308,2)	(282,1)	(33,1)	(-151,1)	(222,1)	(83,1)	(347,1)	(267,1)	(48,1)	(137,1)	
L1D -233>	(64,3)	(239,4)	(238,15)	(233,11)	(0,7)	(1,17)	(234,23)	(-110,2)	(151,2)	(308,2)	(-60,1)	(81,2)	(333,1)	(-63,1)	(-93,1)	(-229,1)	
L1D -232>	(232,15)	(1,4)	(-1,2)	(237,3)	(233,7)	(0,8)	(230,2)	(393,1)	(228,1)	(91,1)	(62,1)	(121,1)	(-114,1)	(181,1)	(58,1)	(64,2)	
L1D -231>	(236,2)	(0,15)	(237,5)	(1,6)	(231,10)	(-13,5)	(230,1)	(-36,1)	(419,1)	(64,1)	(379,1)	(-8,1)	(274,2)	(251,1)	(265,1)	(200,1)	
L1D -230>	(0,10)	(-140,2)	(64,3)	(230,6)	(229,4)	(-12,2)	(236,4)	(1,15)	(342,2)	(231,1)	(103,1)	(134,1)	(348,1)	(159,1)	(-194,1)	(130,1)	
L1D -229>	(235,2)	(-82,2)	(64,2)	(-12,3)	(229,35)	(230,11)	(-210,17)	(234,2)	(0,15)	(101,1)	(1,8)	(-10,1)	(326,1)	(-109,1)	(317,1)	(-106,1)	
L1D -228>	(0,12)	(229,7)	(233,2)	(-170,1)	(64,2)	(1,10)	(327,1)	(241,2)	(-192,1)	(471,1)	(243,1)	(228,19)	(44,1)	(240,1)	(133,1)	(231,1)	
L1D -227>	(233,11)	(1,21)	(0,13)	(227,16)	(232,4)	(185,1)	(241,1)	(228,20)	(196,1)	(21,1)	(398,1)	(372,1)	(16,1)	(353,2)	(151,1)	(249,1)	
L1D -226>	(64,3)	(1,8)	(231,3)	(0,13)	(226,15)	(227,7)	(225,2)	(374,1)	(32,1)	(-61,1)	(232,3)	(288,1)	(166,1)	(366,1)	(468,1)	(235,1)	
L1D -225>	(230,2)	(231,2)	(225,11)	(1,14)	(226,9)	(238,12)	(-57,2)	(278,7)	(21,1)	(50,1)	(0,18)	(269,1)	(359,1)	(-199,1)	(2,2)	(190,1)	
L1D -224>	(64,4)	(229,3)	(223,10)	(225,4)	(-155,1)	(0,11)	(-23,1)	(224,19)	(302,2)	(1,7)	(21,1)	(250,1)	(-162,1)	(161,1)	(308,1)	(211,1)	
L1D -223>	(228,7)	(0,26)	(223,49)	(224,18)	(221,5)	(-4,6)	(307,2)	(229,2)	(1,11)	(395,4)	(222,2)	(-158,2)	(-3,3)	(261,2)	(-157,1)	(299,1)	
L1D -222>	(228,6)	(227,11)	(-149,2)	(0,10)	(223,27)	(221,15)	(-61,2)	(1,5)	(222,13)	(225,2)	(-157,4)	(-74,1)	(-232,1)	(-73,1)	(84,1)	(150,1)	
L1D -221>	(221,41)	(222,10)	(1,1)	(208,1)	(-217,1)	(65,1)	(130,1)	(279,1)	(29,1)	(-225,1)	(345,1)	(58,1)	(275,1)	(360,1)	(0,6)	(226,1)	
L1D -220>	(225,3)	(226,3)	(221,36)	(-67,9)	(-91,2)	(219,7)	(0,3)	(-133,2)	(1,7)	(220,9)	(13,1)	(327,1)	(-10,1)	(-162,1)	(81,1)	(490,1)	
L1D -219>	(-63,5)	(220,17)	(218,4)	(364,3)	(219,26)	(225,6)	(0,12)	(99,1)	(1,8)	(409,1)	(64,1)	(212,1)	(87,1)	(384,1)	(351,1)	(352,1)	
L1D -218>	(80,46)	(64,3)	(224,3)	(1,9)	(0,17)	(219,12)	(129,2)	(216,8)	(-168,2)	(218,37)	(-121,3)	(217,4)	(128,2)	(130,2)	(-23,2)	(255,1)	
L1D -217>	(222,5)	(223,6)	(-22,2)	(-8,4)	(216,5)	(0,13)	(218,7)	(31,1)	(200,1)	(1,8)	(-12,1)	(171,3)	(61,1)	(219,1)	(393,1)	(137,1)	
L1D -216>	(33,20)	(222,10)	(217,14)	(221,5)	(215,6)	(1,4)	(125,2)	(0,19)	(64,2)	(216,31)	(251,2)	(245,6)	(-21,1)	(415,1)	(226,1)	(184,1)	
L1D -215>	(-40,22)	(220,9)	(216,32)	(366,2)	(214,1)	(-14,2)	(215,26)	(64,4)	(0,14)	(22,1)	(229,1)	(432,1)	(-219,1)	(263,1)	(185,1)	(325,1)	
L1D -214>	(0,16)	(214,10)	(-33,2)	(219,4)	(64,4)	(-1,2)	(21,3)	(20,1)	(-21,1)	(367,1)	(157,1)	(169,1)	(74,1)	(95,1)	(1,7)	(249,1)	
L1D -213>	(211,5)	(0,10)	(213,10)	(218,4)	(181,1)	(214,6)	(-57,11)	(167,3)	(309,4)	(311,2)	(219,5)	(369,2)	(1,9)	(375,3)	(212,5)	(248,2)	
L1D -212>	(0,11)	(217,6)	(211,4)	(21,2)	(64,3)	(212,25)	(221,2)	(261,2)	(218,3)	(213,11)	(1,7)	(210,2)	(-6,3)	(-72,6)	(223,2)	(-37,5)	
L1D -211>	(0,33)	(210,11)	(216,7)	(211,79)	(64,2)	(217,7)	(227,2)	(212,45)	(127,4)	(1,12)	(65,2)	(22,2)	(209,5)	(-7,2)	(285,2)	(-167,1)	
L1D -210>	(0,6)	(216,2)	(-13,8)	(210,26)	(64,6)	(292,2)	(215,4)	(1,5)	(351,3)	(440,15)	(211,31)	(209,5)	(208,1)	(194,1)	(-159,1)	(-41,1)	
L1D -209>	(215,3)	(64,4)	(209,37)	(192,2)	(210,21)	(182,6)	(-2,2)	(211,2)	(0,21)	(208,2)	(-8,3)	(223,2)	(42,2)	(214,5)	(194,2)	(91,1)	
L1D -208>	(-9,2)	(0,18)	(64,9)	(1,6)	(-47,3)	(213,8)	(51,2)	(43,1)	(-5,1)	(-14,1)	(-16,1)	(-132,1)	(209,32)	(208,14)	(45,2)	(254,1)	
L1D -207>	(208,5)	(0,25)	(205,2)	(64,2)	(207,10)	(206,6)	(1,13)	(-3,2)	(29,1)	(-214,1)	(213,3)	(212,2)	(265,1)	(232,1)	(218,1)	(148,1)	
L1D -206>	(0,11)	(64,6)	(212,2)	(206,42)	(207,4)	(-128,2)	(-10,3)	(1,7)	(112,1)	(211,4)	(203,1)	(-132,1)	(480,1)	(40,1)	(86,1)	(-284,1)	
L1D -205>	(211,4)	(0,14)	(206,21)	(205,16)	(261,16)	(1,8)	(204,5)	(64,3)	(-95,2)	(227,2)	(-36,4)	(-68,2)	(255,2)	(2,1)	(6,1)	(-74,1)	
L1D -204>	(210,3)	(64,4)	(204,16)	(192,2)	(0,17)	(205,9)	(209,3)	(259,10)	(1,6)	(228,2)	(229,2)	(-2,2)	(-18,3)	(-69,1)	(161,1)	(146,1)	
L1D -203>	(247,2)	(64,4)	(209,4)	(10,2)	(1,6)	(317,3)	(208,2)	(0,13)	(204,2)	(203,20)	(202,3)	(-2,2)	(375,1)	(-51,1)	(184,1)	(365,1)	
L1D -202>	(201,3)	(0,11)	(208,14)	(231,5)	(10,6)	(202,2)	(64,3)	(1,7)	(203,4)	(207,4)	(317,1)	(-92,1)	(-193,1)	(440,1)	(-23,1)	(214,1)	
L1D -201>	(201,25)	(202,5)	(207,3)	(206,5)	(64,2)	(200,5)	(1,2)	(67,1)	(11,2)	(130,1)	(110,1)	(0,11)	(-61,1)	(225,1)	(134,1)	(161,1)	
L1D -200>	(206,4)	(205,9)	(1,4)	(0,13)	(64,2)	(199,8)	(201,2)	(408,1)	(47,1)	(38,1)	(-1,1)	(200,39)	(6,1)	(125,1)	(-97,1)	(266,1)	
L1D -199>	(11,4)	(204,5)	(198,3)	(64,2)	(0,13)	(-133,1)	(200,8)	(199,8)	(-2,2)	(1,3)	(113,1)	(244,1)	(432,1)	(151,2)	(173,1)	(137,1)	
L1D -198>	(0,9)	(1,5)	(198,11)	(197,6)	(199,7)	(203,3)	(-14,2)	(6,1)	(146,1)	(145,1)	(144,1)	(305,1)	(196,1)	(163,1)	(33,1)	(-163,1)	
L1D -197>	(0,23)	(11,2)	(202,9)	(213,2)	(1,10)	(197,40)	(198,12)	(-188,2)	(203,3)	(196,7)	(-13,3)	(21,1)	(208,1)	(-3,1)	(-9,1)	(112,1)	
L1D -196>	(196,34)	(201,3)	(197,17)	(174,2)	(-34,2)	(202,4)	(-2,2)	(0,22)	(-5,2)	(1,14)	(132,2)	(2,4)	(171,2)	(194,1)	(242,1)	(347,2)	
L1D -195>	(194,17)	(195,36)	(196,45)	(-154,3)	(229,3)	(200,4)	(0,33)	(157,5)	(201,5)	(64,2)	(-82,9)	(95,2)	(1,16)	(193,2)	(-191,2)	(-27,1)	
L1D -194>	(194,57)	(195,18)	(0,34)	(200,3)	(-3,2)	(1,11)	(279,3)	(-112,4)	(-2,3)	(232,2)	(199,2)	(-79,2)	(249,1)	(-1,1)	(227,2)	(26,1)	
L1D -193>	(199,6)	(193,32)	(194,23)	(64,3)	(1,17)	(0,28)	(231,2)	(257,5)	(192,5)	(197,2)	(219,2)	(5,1)	(260,1)	(-129,1)	(177,1)	(286,1)	
L1D -192>	(64,4)	(191,2)	(197,3)	(0,15)	(192,19)	(266,3)	(193,10)	(256,2)	(1,11)	(413,1)	(98,1)	(206,1)	(148,1)	(185,1)	(221,1)	(464,1)	
L1D -191>	(-19,2)	(192,11)	(244,6)	(197,13)	(205,2)	(191,7)	(0,18)	(196,7)	(387,1)	(-23,2)	(47,1)	(301,1)	(-91,1)	(-22,1)	(1,14)	(-195,2)	
L1D -190>	(195,8)	(190,25)	(202,2)	(-51,2)	(189,2)	(1,10)	(204,2)	(191,21)	(-110,1)	(84,1)	(-2,1)	(0,11)	(6,1)	(-23,2)	(-21,1)	(-52,1)	
L1D -189>	(189,29)	(261,1)	(194,4)	(188,6)	(0,18)	(1,9)	(186,3)	(203,3)	(211,1)	(-1,1)	(190,13)	(10,1)	(195,3)	(380,2)	(381,1)	(-21,1)	
L1D -188>	(0,12)	(188,47)	(187,4)	(189,7)	(-1,3)	(193,2)	(185,4)	(186,3)	(243,5)	(169,2)	(1,1)	(381,2)	(171,1)	(194,1)	(128,2)	(355,1)	
L1D -187>	(0,11)	(188,6)	(64,3)	(1,12)	(186,2)	(192,2)	(187,17)	(311,2)	(194,1)	(100,1)	(-64,1)	(-89,1)	(131,1)	(56,1)	(20,1)	(-113,1)	
L1D -186>	(189,2)	(191,13)	(1,6)	(192,5)	(64,3)	(187,8)	(186,34)	(0,26)	(201,1)	(56,1)	(62,1)	(239,1)	(197,1)	(157,1)	(199,1)	(22,1)	
L1D -185>	(0,26)	(185,38)	(1,14)	(186,23)	(-91,3)	(-90,1)	(191,6)	(184,9)	(-3,1)	(164,2)	(225,1)	(26,1)	(120,2)	(27,1)	(188,1)	(305,1)	
L1D -184>	(190,4)	(184,18)	(-81,1)	(0,14)	(-9,1)	(189,5)	(195,3)	(1,9)	(185,7)	(64,2)	(-1,1)	(78,1)	(19,2)	(-116,1)	(-77,1)	(32,1)	
L1D -183>	(189,2)	(0,8)	(183,13)	(-32,6)	(-97,2)	(38,1)	(5,1)	(276,1)	(-131,1)	(1,8)	(-5,1)	(-25,1)	(10,1)	(-81,1)	(-56,1)	(148,1)	
L1D -182>	(188,5)	(0,8)	(187,5)	(-128,2)	(181,4)	(1,6)	(-30,2)	(183,14)	(-73,2)	(-36,2)	(182,6)	(19,1)	(65,1)	(355,1)	(-226,1)	(186,1)	
L1D -181>	(187,11)	(64,2)	(186,8)	(0,13)	(180,10)	(34,1)	(270,1)	(182,20)	(181,11)	(-3,2)	(-6,1)	(280,1)	(1,5)	(172,1)	(185,1)	(-37,1)	
L1D -180>	(0,29)	(186,7)	(185,5)	(181,13)	(180,76)	(179,5)	(-1,1)	(197,3)	(1,22)	(22,1)	(29,1)	(31,1)	(233,1)	(-37,1)	(383,1)	(-131,1)	
L1D -179>	(180,66)	(177,4)	(0,44)	(-250,1)	(178,13)	(179,68)	(1,32)	(-155,1)	(184,5)	(28,1)	(117,1)	(193,1)	(397,1)	(198,1)	(10,1)	(403,1)	
L1D -178>	(183,3)	(1,7)	(0,25)	(178,101)	(179,25)	(177,10)	(175,3)	(184,3)	(279,6)	(245,3)	(176,2)	(19,2)	(-5,1)	(189,1)	(310,1)	(252,1)	
L1D -177>	(0,18)	(176,8)	(178,26)	(279,2)	(1,9)	(-3,2)	(304,2)	(-129,1)	(177,23)	(-16,1)	(84,1)	(60,1)	(-152,1)	(187,1)	(-94,1)	(-19,1)	
L1D -176>	(-100,2)	(178,4)	(122,2)	(-18,5)	(-13,4)	(181,8)	(176,12)	(-15,5)	(0,16)	(-8,3)	(1,13)	(-11,8)	(177,30)	(-9,3)	(175,8)	(-123,2)	
L1D -175>	(-5,3)	(180,8)	(181,4)	(0,19)	(-88,5)	(176,11)	(-107,5)	(178,2)	(174,6)	(175,25)	(1,4)	(-12,2)	(128,2)	(-16,1)	(197,1)	(22,1)	
L1D -174>	(-11,6)	(64,4)	(180,10)	(0,17)	(1,12)	(172,8)	(174,63)	(173,14)	(-139,1)	(372,6)	(373,2)	(175,26)	(65,2)	(171,2)	(-164,2)	(21,3)	
L1D -173>	(1,13)	(179,7)	(192,3)	(173,37)	(174,29)	(0,25)	(172,5)	(70,2)	(65,2)	(22,3)	(178,2)	(-47,2)	(-7,1)	(49,1)	(220,1)	(-27,1)	
L1D -172>	(171,15)	(177,2)	(178,2)	(172,35)	(173,24)	(0,7)	(1,17)	(97,2)	(-72,1)	(336,1)	(158,1)	(26,1)	(409,1)	(64,1)	(314,1)	(139,1)	
L1D -171>	(176,8)	(177,6)	(1,12)	(190,3)	(174,2)	(312,3)	(172,15)	(171,44)	(141,2)	(170,6)	(267,1)	(0,17)	(34,2)	(102,2)	(-66,1)	(35,1)	
L1D -170>	(176,15)	(-94,3)	(175,5)	(1,9)	(170,29)	(171,6)	(95,2)	(173,1)	(0,19)	(169,7)	(-27,1)	(65,2)	(109,1)	(-12,1)	(121,1)	(123,1)	
L1D -169>	(2,6)	(277,1)	(174,8)	(168,7)	(3,2)	(-9,3)	(169,54)	(-103,8)	(170,26)	(0,14)	(1,20)	(175,3)	(-3,2)	(259,2)	(-4,2)	(197,2)	
L1D -168>	(-5,3)	(1,11)	(173,7)	(168,52)	(169,71)	(-15,20)	(0,16)	(65,18)	(177,2)	(130,2)	(-4,2)	(167,3)	(190,1)	(85,1)	(255,1)	(134,1)	
L1D -167>	(1,42)	(172,4)	(184,2)	(257,61)	(173,4)	(168,9)	(0,4)	(178,2)	(166,1)	(167,12)	(10,2)	(200,1)	(230,1)	(119,1)	(474,1)	(392,1)	
L1D -166>	(0,13)	(171,2)	(-17,2)	(82,2)	(166,19)	(164,2)	(1,7)	(165,11)	(167,4)	(243,5)	(244,2)	(256,3)	(195,2)	(-42,2)	(321,3)	(106,1)	
L1D -165>	(171,4)	(1,7)	(170,17)	(-212,1)	(-153,1)	(0,13)	(187,1)	(164,5)	(166,10)	(165,22)	(147,1)	(176,2)	(-268,1)	(243,2)	(398,1)	(470,1)	
L1D -164>	(-100,7)	(164,44)	(0,29)	(11,19)	(333,1)	(170,11)	(2,3)	(1,14)	(160,4)	(43,3)	(169,5)	(165,11)	(193,3)	(-144,1)	(-12,1)	(-24,2)	
L1D -163>	(11,26)	(162,15)	(0,48)	(1,8)	(164,18)	(10,14)	(169,8)	(163,46)	(-1,6)	(-122,1)	(-97,4)	(159,6)	(261,4)	(151,2)	(-94,2)	(161,3)	
L1D -162>	(10,19)	(0,27)	(150,3)	(162,53)	(161,8)	(168,2)	(139,4)	(140,5)	(167,2)	(-120,5)	(11,12)	(1,2)	(163,12)	(-97,3)	(276,1)	(-2,1)	
L1D -161>	(162,40)	(-277,1)	(166,3)	(161,114)	(1,14)	(0,40)	(10,21)	(-213,4)	(11,6)	(278,5)	(-25,3)	(160,11)	(-63,4)	(-60,6)	(303,6)	(-164,4)	
L1D -160>	(0,25)	(162,9)	(140,3)	(139,2)	(-80,3)	(43,2)	(469,2)	(5,2)	(165,3)	(166,10)	(1,6)	(160,12)	(197,1)	(10,8)	(159,9)	(161,35)	
L1D -159>	(469,1)	(162,3)	(192,3)	(64,2)	(165,12)	(159,38)	(82,3)	(-97,5)	(1,15)	(-68,4)	(163,4)	(160,20)	(0,15)	(164,10)	(232,2)	(158,4)	
L1D -158>	(0,31)	(14,4)	(163,8)	(164,3)	(157,10)	(156,5)	(222,3)	(9,1)	(162,2)	(-161,2)	(-61,3)	(-9,2)	(158,58)	(159,30)	(-2,2)	(1,9)	
L1D -157>	(0,18)	(163,5)	(162,7)	(138,2)	(161,2)	(155,7)	(156,7)	(157,25)	(1,12)	(130,3)	(174,10)	(158,11)	(-17,2)	(-40,2)	(417,5)	(228,1)	
L1D -156>	(0,19)	(155,11)	(1,14)	(126,3)	(156,23)	(-107,1)	(197,11)	(157,28)	(64,2)	(412,10)	(161,4)	(-32,4)	(294,5)	(-62,11)	(174,4)	(243,2)	
L1D -155>	(64,3)	(160,9)	(0,19)	(-166,3)	(243,4)	(1,5)	(-26,3)	(98,3)	(269,4)	(154,14)	(155,49)	(159,2)	(156,25)	(-27,6)	(180,3)	(153,4)	
L1D -154>	(155,27)	(349,3)	(159,14)	(0,16)	(154,86)	(1,18)	(153,12)	(152,16)	(151,3)	(251,3)	(-132,1)	(167,2)	(163,2)	(297,2)	(298,4)	(242,2)	
L1D -153>	(152,4)	(150,5)	(158,7)	(153,40)	(151,2)	(159,8)	(0,18)	(154,19)	(-122,2)	(168,2)	(239,2)	(337,3)	(1,16)	(89,2)	(-20,1)	(164,1)	
L1D -152>	(0,17)	(292,8)	(153,62)	(-247,2)	(158,6)	(64,2)	(1,13)	(152,43)	(154,2)	(-61,4)	(264,2)	(150,9)	(149,5)	(-11,2)	(36,1)	(-31,1)	
L1D -151>	(0,21)	(117,7)	(151,30)	(152,20)	(157,8)	(-21,2)	(156,2)	(1,10)	(154,3)	(-5,3)	(-1,3)	(149,2)	(170,1)	(-73,1)	(-23,1)	(64,4)	
L1D -150>	(-6,3)	(151,6)	(61,4)	(0,7)	(155,4)	(156,6)	(64,3)	(-215,2)	(194,2)	(150,6)	(167,2)	(1,8)	(-4,2)	(-21,3)	(166,2)	(78,1)	
L1D -149>	(-92,2)	(154,10)	(155,9)	(150,12)	(0,23)	(1,11)	(271,6)	(64,2)	(-57,2)	(147,2)	(148,2)	(261,1)	(175,1)	(-257,1)	(149,17)	(172,1)	
L1D -148>	(148,21)	(154,10)	(153,4)	(0,12)	(149,56)	(286,3)	(147,3)	(152,2)	(256,3)	(1,23)	(-292,1)	(-12,1)	(159,1)	(310,1)	(258,1)	(101,2)	
L1D -147>	(127,2)	(156,2)	(0,29)	(153,5)	(148,54)	(147,53)	(152,12)	(109,3)	(1,33)	(146,8)	(115,6)	(88,2)	(22,2)	(281,9)	(-79,7)	(11,1)	
L1D -146>	(1,43)	(152,4)	(0,42)	(151,8)	(147,28)	(148,3)	(146,32)	(-185,2)	(-77,10)	(-219,3)	(-242,7)	(64,2)	(-37,5)	(211,1)	(197,1)	(129,1)	
L1D -145>	(151,10)	(1,49)	(0,20)	(146,14)	(150,7)	(145,30)	(144,6)	(156,1)	(161,1)	(138,1)	(95,1)	(505,1)	(169,1)	(220,1)	(22,2)	(171,1)	
L1D -144>	(0,50)	(149,7)	(143,8)	(83,2)	(150,2)	(144,97)	(142,2)	(141,2)	(140,3)	(145,27)	(222,2)	(-20,4)	(-49,2)	(1,19)	(-139,2)	(-73,1)	
L1D -143>	(0,27)	(143,85)	(5,2)	(149,9)	(144,45)	(141,3)	(140,7)	(148,8)	(64,2)	(1,7)	(-161,5)	(316,1)	(21,2)	(155,2)	(-50,1)	(100,1)	
L1D -142>	(148,11)	(147,9)	(140,8)	(141,6)	(0,16)	(1,20)	(-9,2)	(142,44)	(143,17)	(-121,2)	(-128,1)	(261,1)	(21,1)	(294,1)	(151,1)	(152,2)	
L1D -141>	(1,28)	(0,36)	(146,7)	(135,2)	(147,14)	(142,22)	(145,2)	(143,2)	(-55,2)	(-49,9)	(141,45)	(140,1)	(144,1)	(34,2)	(137,1)	(393,1)	
L1D -140>	(145,8)	(0,25)	(146,7)	(1,6)	(142,3)	(141,21)	(159,4)	(223,6)	(143,3)	(-36,1)	(140,17)	(139,4)	(-57,24)	(-210,4)	(-171,2)	(-47,6)	
L1D -139>	(10,2)	(0,33)	(138,14)	(136,2)	(-1,3)	(145,10)	(-152,9)	(144,2)	(244,2)	(-22,2)	(139,9)	(140,13)	(91,1)	(137,2)	(1,17)	(175,1)	
L1D -138>	(143,8)	(232,3)	(-49,8)	(137,7)	(-13,5)	(144,5)	(0,45)	(1,43)	(147,3)	(166,3)	(138,43)	(139,28)	(55,2)	(136,4)	(-48,5)	(374,1)	
L1D -137>	(142,7)	(0,32)	(138,75)	(137,43)	(135,11)	(171,3)	(1,57)	(136,26)	(11,5)	(-169,1)	(-49,4)	(-156,6)	(-56,12)	(143,6)	(-148,7)	(-3,2)	
L1D -136>	(11,7)	(1,31)	(170,1)	(134,5)	(220,3)	(136,117)	(142,16)	(0,40)	(131,3)	(141,21)	(10,8)	(-13,4)	(-1,4)	(135,18)	(-19,5)	(137,31)	
L1D -135>	(0,37)	(140,10)	(11,12)	(141,6)	(135,99)	(-1,11)	(134,9)	(133,7)	(10,7)	(-25,3)	(1,26)	(136,57)	(-2,2)	(130,7)	(-68,2)	(-14,2)	
L1D -134>	(10,12)	(140,3)	(185,2)	(0,35)	(11,8)	(134,42)	(135,38)	(-77,8)	(139,12)	(-28,12)	(415,1)	(-127,1)	(182,2)	(238,1)	(143,3)	(192,1)	
L1D -133>	(0,19)	(10,5)	(223,10)	(11,6)	(138,7)	(-25,3)	(167,7)	(133,32)	(214,7)	(332,1)	(-7,2)	(134,53)	(-1,6)	(132,8)	(-147,9)	(-14,2)	
L1D -132>	(138,12)	(0,38)	(132,43)	(213,2)	(-16,2)	(1,14)	(137,5)	(-1,3)	(133,5)	(143,2)	(339,2)	(131,4)	(469,1)	(170,4)	(10,6)	(50,2)	
L1D -131>	(137,14)	(120,2)	(130,4)	(131,74)	(0,36)	(132,6)	(170,1)	(147,1)	(136,18)	(-1,2)	(1,10)	(34,1)	(10,1)	(295,1)	(112,7)	(113,1)	
L1D -130>	(131,32)	(130,68)	(129,9)	(0,37)	(1,16)	(135,3)	(136,14)	(-43,3)	(-156,1)	(112,4)	(-256,1)	(32,3)	(108,1)	(3,2)	(186,1)	(-252,1)	
L1D -129>	(65,4)	(211,52)	(135,6)	(0,17)	(157,1)	(23,3)	(79,2)	(129,33)	(-32,2)	(32,2)	(-7,3)	(130,26)	(119,5)	(-71,2)	(128,10)	(127,3)	
L1D -128>	(64,38)	(405,1)	(4,10)	(0,61)	(32,4)	(134,13)	(129,23)	(119,3)	(-15,3)	(1,37)	(128,59)	(112,4)	(-249,3)	(118,4)	(-298,3)	(127,8)	
L1D -127>	(132,12)	(2,7)	(0,33)	(32,5)	(133,10)	(127,38)	(126,9)	(128,25)	(6,5)	(1,4)	(-55,1)	(155,2)	(165,1)	(172,1)	(76,1)	(176,1)	
L1D -126>	(32,7)	(132,9)	(125,11)	(-124,1)	(134,2)	(1,28)	(0,29)	(131,8)	(126,82)	(127,27)	(-22,5)	(153,2)	(2,2)	(47,2)	(-23,2)	(5,2)	
L1D -125>	(131,18)	(0,56)	(124,22)	(1,22)	(130,16)	(125,94)	(-46,7)	(126,68)	(-43,4)	(32,3)	(153,1)	(5,9)	(136,2)	(17,6)	(-9,2)	(16,2)	
L1D -124>	(129,3)	(125,40)	(32,4)	(130,4)	(312,3)	(0,30)	(123,10)	(164,2)	(5,1)	(1,22)	(131,2)	(-27,1)	(124,49)	(9,3)	(16,2)	(-130,1)	
L1D -123>	(129,4)	(-38,3)	(32,3)	(123,75)	(124,11)	(122,7)	(0,39)	(128,16)	(-298,1)	(11,10)	(194,4)	(5,3)	(17,3)	(6,2)	(-136,3)	(1,29)	
L1D -122>	(127,8)	(1,17)	(128,6)	(122,41)	(123,32)	(0,22)	(121,9)	(120,2)	(-43,4)	(-40,11)	(-4,2)	(89,2)	(36,1)	(95,2)	(-69,2)	(44,2)	
L1D -121>	(127,9)	(121,112)	(0,35)	(-45,2)	(119,8)	(126,13)	(-4,2)	(125,4)	(122,30)	(120,14)	(1,10)	(339,3)	(-77,3)	(-34,5)	(-99,4)	(-1,6)	
L1D -120>	(126,12)	(125,21)	(119,13)	(121,24)	(120,46)	(0,12)	(276,1)	(118,7)	(-43,4)	(280,2)	(182,3)	(-40,4)	(403,4)	(-11,3)	(129,2)	(1,9)	
L1D -119>	(159,4)	(0,39)	(119,88)	(121,4)	(118,18)	(125,9)	(120,14)	(202,7)	(1,21)	(203,2)	(-120,2)	(-9,2)	(147,1)	(-38,1)	(4,1)	(-66,1)	
L1D -118>	(124,10)	(37,2)	(1,13)	(117,18)	(32,2)	(58,4)	(0,18)	(110,2)	(20,7)	(118,126)	(119,43)	(120,3)	(116,3)	(201,3)	(202,5)	(306,1)	
L1D -117>	(116,8)	(0,23)	(92,1)	(123,15)	(58,2)	(117,67)	(122,4)	(-16,3)	(22,3)	(121,2)	(-2,3)	(1,14)	(141,3)	(118,38)	(-88,2)	(119,3)	
L1D -116>	(121,14)	(122,18)	(0,49)	(115,10)	(117,37)	(32,3)	(1,12)	(116,37)	(-11,3)	(-161,5)	(128,7)	(-157,2)	(140,5)	(241,1)	(145,1)	(131,1)	
L1D -115>	(1,16)	(114,12)	(121,7)	(0,27)	(120,12)	(115,78)	(116,23)	(-149,10)	(138,2)	(-155,3)	(113,2)	(-36,2)	(32,2)	(128,2)	(-19,1)	(54,2)	
L1D -114>	(0,53)	(-81,11)	(114,25)	(120,15)	(119,13)	(-9,3)	(1,13)	(32,2)	(113,10)	(115,8)	(-52,4)	(137,4)	(112,2)	(-155,2)	(116,1)	(42,1)	
L1D -113>	(21,8)	(119,6)	(113,27)	(0,29)	(112,5)	(1,14)	(118,12)	(-2,3)	(-146,6)	(-3,4)	(-39,13)	(114,16)	(-94,11)	(20,6)	(-23,8)	(-166,1)	
L1D -112>	(20,2)	(70,2)	(22,2)	(21,6)	(118,9)	(0,48)	(112,31)	(117,14)	(-2,2)	(113,9)	(111,3)	(1,13)	(-94,2)	(-230,2)	(391,3)	(-134,1)	
L1D -111>	(111,22)	(-2,4)	(116,25)	(20,7)	(117,4)	(272,9)	(21,15)	(110,5)	(0,14)	(135,8)	(178,10)	(112,6)	(1,9)	(104,5)	(65,7)	(203,1)	
L1D -110>	(1,20)	(115,12)	(21,12)	(109,13)	(0,31)	(175,8)	(116,16)	(-37,2)	(121,4)	(110,53)	(20,7)	(65,26)	(-16,2)	(32,4)	(-5,3)	(111,16)	
L1D -109>	(0,39)	(108,10)	(20,26)	(115,14)	(171,7)	(114,11)	(110,26)	(-20,11)	(-37,9)	(1,27)	(109,72)	(23,1)	(117,5)	(-9,5)	(65,29)	(77,3)	
L1D -108>	(65,64)	(1,26)	(108,72)	(210,6)	(0,29)	(109,65)	(476,1)	(-261,2)	(107,13)	(106,6)	(21,2)	(118,2)	(-148,3)	(-20,3)	(114,7)	(-153,2)	
L1D -107>	(-36,18)	(22,38)	(108,49)	(283,5)	(107,66)	(0,38)	(113,18)	(32,7)	(65,26)	(112,1)	(105,7)	(1,32)	(-83,5)	(158,2)	(106,13)	(43,3)	
L1D -106>	(65,84)	(99,1)	(111,6)	(106,73)	(109,4)	(108,9)	(105,10)	(107,23)	(1,28)	(32,7)	(-14,5)	(0,74)	(-11,4)	(112,22)	(-45,6)	(-85,12)	
L1D -105>	(65,89)	(111,21)	(153,3)	(110,9)	(0,28)	(-12,3)	(106,36)	(-24,1)	(105,60)	(108,4)	(-20,7)	(-1,3)	(-286,7)	(1,14)	(-61,7)	(-251,8)	
L1D -104>	(65,96)	(-36,1)	(-58,2)	(0,45)	(32,16)	(104,37)	(-19,2)	(110,13)	(105,15)	(112,2)	(1,36)	(-139,4)	(34,5)	(-138,2)	(109,13)	(-1,2)	
L1D -103>	(0,49)	(102,9)	(32,19)	(205,4)	(104,33)	(109,16)	(103,46)	(1,16)	(108,14)	(-152,1)	(-45,16)	(-9,4)	(-48,3)	(34,2)	(-17,2)	(183,3)	
L1D -102>	(-239,3)	(-11,4)	(32,22)	(107,19)	(0,29)	(100,4)	(344,1)	(101,18)	(102,46)	(33,4)	(1,21)	(125,3)	(108,7)	(-123,3)	(65,2)	(-48,2)	
L1D -101>	(35,4)	(100,11)	(0,25)	(-108,6)	(-2,3)	(110,4)	(102,47)	(1,19)	(-245,1)	(105,2)	(106,10)	(32,17)	(101,70)	(154,5)	(36,3)	(-103,3)	
L1D -100>	(100,36)	(106,5)	(-5,3)	(35,5)	(105,15)	(0,23)	(34,6)	(101,54)	(1,28)	(-178,5)	(83,3)	(277,2)	(32,12)	(206,2)	(99,8)	(98,5)	
L1D -99>	(33,3)	(35,10)	(32,9)	(0,34)	(104,24)	(-134,14)	(235,3)	(-53,12)	(98,15)	(-90,8)	(99,71)	(1,20)	(96,4)	(-187,1)	(110,2)	(100,59)	
L1D -98>	(32,27)	(34,16)	(0,58)	(147,1)	(33,3)	(104,18)	(-1,2)	(103,20)	(1,36)	(98,70)	(99,34)	(97,10)	(96,7)	(-5,4)	(-2,2)	(-213,2)	
L1D -97>	(-31,6)	(32,45)	(33,8)	(187,5)	(1,35)	(193,5)	(166,6)	(260,6)	(259,3)	(0,42)	(-26,12)	(96,4)	(-154,3)	(103,14)	(98,85)	(97,42)	
L1D -96>	(32,88)	(0,12)	(1,13)	(96,20)	(95,7)	(97,11)	(102,2)	(218,1)	(159,1)	(-238,1)	(113,2)	(105,2)	(-282,1)	(64,2)	(110,1)	(47,1)	
L1D -95>	(101,4)	(0,35)	(32,8)	(95,92)	(-174,3)	(100,2)	(64,4)	(96,30)	(1,29)	(-30,2)	(301,2)	(91,2)	(93,2)	(-92,1)	(-4,1)	(94,6)	
L1D -94>	(0,42)	(1,22)	(32,12)	(-66,23)	(89,5)	(149,1)	(95,67)	(94,76)	(100,19)	(93,8)	(264,3)	(99,10)	(-10,4)	(-20,7)	(124,5)	(208,8)	
L1D -93>	(32,5)	(0,37)	(1,18)	(-198,1)	(288,10)	(91,2)	(99,18)	(-27,3)	(93,37)	(90,4)	(-1,2)	(94,16)	(98,9)	(470,2)	(-2,2)	(92,3)	
L1D -92>	(0,58)	(171,3)	(93,34)	(-61,4)	(92,86)	(-9,4)	(98,15)	(1,30)	(32,4)	(97,23)	(-16,3)	(91,10)	(176,5)	(-55,2)	(-86,3)	(-7,2)	
L1D -91>	(1,21)	(275,2)	(96,13)	(97,10)	(92,32)	(-28,3)	(0,70)	(91,61)	(-49,3)	(-37,6)	(32,2)	(-64,2)	(-39,5)	(-34,16)	(95,2)	(90,22)	
L1D -90>	(91,21)	(1,16)	(95,14)	(0,43)	(89,24)	(32,4)	(-77,5)	(31,1)	(88,8)	(99,2)	(10,2)	(-38,3)	(90,31)	(14,2)	(189,6)	(97,2)	
L1D -89>	(0,103)	(90,31)	(-133,10)	(-1,38)	(104,2)	(1,25)	(206,2)	(-158,2)	(-78,5)	(89,124)	(4,2)	(2,1)	(88,13)	(-155,4)	(-239,1)	(87,8)	
L1D -88>	(1,107)	(-2,72)	(0,34)	(88,107)	(-1,49)	(-171,14)	(10,1)	(-4,8)	(89,39)	(-35,3)	(264,5)	(36,4)	(87,16)	(94,11)	(93,8)	(86,4)	
L1D -87>	(1,18)	(0,56)	(-153,2)	(88,56)	(32,2)	(87,114)	(94,4)	(86,21)	(92,8)	(-10,2)	(85,4)	(93,7)	(-348,2)	(29,10)	(2,1)	(-36,1)	
L1D -86>	(0,74)	(32,4)	(85,17)	(86,48)	(91,5)	(1,47)	(158,3)	(-9,5)	(-3,3)	(-194,3)	(92,15)	(-10,10)	(209,3)	(87,36)	(-318,1)	(-1,2)	
L1D -85>	(4,4)	(1,39)	(91,15)	(192,10)	(-5,8)	(85,124)	(86,56)	(0,48)	(107,1)	(135,3)	(345,3)	(84,16)	(82,9)	(-65,4)	(-194,4)	(-18,3)	
L1D -84>	(1,38)	(90,12)	(0,29)	(85,29)	(4,88)	(84,64)	(-136,3)	(83,13)	(-171,1)	(5,3)	(-1,31)	(3,3)	(70,2)	(10,2)	(2,6)	(-19,4)	
L1D -83>	(0,16)	(89,6)	(4,5)	(88,4)	(1,23)	(-47,3)	(191,2)	(-72,2)	(82,8)	(-181,1)	(37,2)	(83,77)	(84,21)	(-1,1)	(-4,3)	(-14,1)	
L1D -82>	(1,47)	(0,68)	(85,10)	(82,62)	(138,6)	(243,4)	(92,1)	(-59,7)	(-17,3)	(83,22)	(81,15)	(-140,11)	(88,23)	(87,21)	(-36,3)	(93,3)	
L1D -81>	(1,24)	(0,43)	(-93,11)	(82,47)	(-158,2)	(88,3)	(80,12)	(87,18)	(-4,12)	(81,40)	(-210,5)	(-13,5)	(-5,3)	(86,18)	(136,4)	(406,6)	
L1D -80>	(1,41)	(0,39)	(4,6)	(-133,4)	(-1,10)	(81,27)	(-4,13)	(80,62)	(85,21)	(-40,9)	(-73,1)	(84,2)	(-5,13)	(-8,3)	(-35,7)	(380,2)	
L1D -79>	(4,7)	(0,63)	(84,18)	(1,27)	(-6,8)	(-346,1)	(79,49)	(83,4)	(-5,4)	(-12,3)	(164,3)	(78,4)	(80,47)	(227,6)	(101,3)	(-103,8)	
L1D -78>	(80,5)	(83,8)	(232,6)	(81,3)	(77,12)	(-5,3)	(-8,1)	(1,25)	(-39,2)	(78,50)	(79,38)	(0,41)	(118,2)	(-102,2)	(84,2)	(-42,4)	
L1D -77>	(-2,8)	(1,22)	(0,56)	(76,23)	(83,9)	(82,22)	(77,86)	(95,4)	(-48,8)	(78,20)	(20,7)	(87,4)	(-240,1)	(-1,8)	(-52,11)	(75,5)	
L1D -76>	(-1,8)	(0,37)	(-98,6)	(-26,1)	(-60,4)	(-2,2)	(75,11)	(76,83)	(1,23)	(74,5)	(81,11)	(95,2)	(82,15)	(77,45)	(-28,3)	(102,2)	
L1D -75>	(4,5)	(-2,4)	(0,31)	(76,63)	(75,90)	(125,3)	(-211,2)	(81,23)	(-57,24)	(-17,2)	(-5,4)	(1,31)	(-30,3)	(-101,2)	(74,10)	(-9,4)	
L1D -74>	(42,2)	(73,22)	(74,76)	(4,13)	(75,21)	(0,45)	(153,2)	(-1,7)	(80,7)	(37,3)	(72,2)	(-15,1)	(93,1)	(79,2)	(1,36)	(437,1)	
L1D -73>	(73,64)	(74,30)	(0,30)	(79,10)	(-1,4)	(9,1)	(249,0)	(170,2)	(68,2)	(1,17)	(-65,12)	(125,1)	(78,1)	(44,1)	(72,10)	(-20,1)	
L1D -72>	(77,19)	(154,8)	(73,58)	(-1,5)	(71,28)	(105,1)	(72,94)	(0,81)	(22,3)	(78,10)	(128,3)	(32,4)	(1,45)	(-70,7)	(-45,3)	(3,4)	
L1D -71>	(-2,10)	(0,32)	(1,21)	(-354,2)	(72,50)	(-123,2)	(76,5)	(77,8)	(71,71)	(32,2)	(74,2)	(-8,4)	(128,5)	(-60,3)	(70,9)	(-189,1)	
L1D -70>	(1,33)	(76,11)	(70,83)	(69,12)	(71,31)	(38,2)	(75,6)	(142,2)	(-2,2)	(0,43)	(-65,1)	(-69,2)	(86,1)	(35,1)	(73,1)	(32,1)	
L1D -69>	(4,7)	(68,12)	(96,3)	(0,40)	(76,4)	(-213,2)	(3,2)	(37,2)	(69,84)	(127,2)	(32,5)	(70,42)	(-1,3)	(74,13)	(1,32)	(-15,1)	
L1D -68>	(73,21)	(4,6)	(3,8)	(32,7)	(0,67)	(123,5)	(1,56)	(10,4)	(-281,6)	(69,43)	(36,4)	(68,112)	(-97,6)	(219,1)	(-2,4)	(-1,9)	
L1D -67>	(246,1)	(72,11)	(67,114)	(0,88)	(4,8)	(66,20)	(32,9)	(69,9)	(68,109)	(-1,5)	(-21,4)	(64,6)	(288,8)	(1,53)	(90,4)	(65,9)	
L1D -66>	(32,5)	(-2,7)	(66,93)	(71,8)	(-132,6)	(1,28)	(67,72)	(-1,7)	(-26,11)	(72,7)	(0,42)	(-111,17)	(64,10)	(-89,1)	(161,5)	(65,19)	
L1D -65>	(-2,6)	(0,39)	(33,7)	(136,1)	(65,97)	(32,6)	(1,33)	(66,58)	(64,18)	(70,4)	(61,4)	(151,4)	(139,10)	(63,4)	(-14,2)	(71,4)	
L1D -64>	(66,51)	(4,13)	(2,39)	(68,11)	(32,15)	(218,3)	(65,61)	(0,29)	(-45,1)	(64,79)	(1,13)	(63,11)	(-44,5)	(70,2)	(92,2)	(62,3)	
L1D -63>	(67,119)	(4,13)	(64,56)	(-147,8)	(-11,1)	(1,19)	(0,48)	(63,100)	(-1,5)	(3,28)	(-40,5)	(-146,4)	(69,10)	(62,15)	(60,4)	(-4,9)	
L1D -62>	(70,50)	(2,15)	(4,47)	(6,34)	(66,11)	(-92,1)	(0,32)	(80,15)	(-47,9)	(62,123)	(59,8)	(63,22)	(3,73)	(219,8)	(67,49)	(-61,16)	
L1D -61>	(11,121)	(0,51)	(67,9)	(61,88)	(62,78)	(247,1)	(17,15)	(6,19)	(22,10)	(66,8)	(81,10)	(1,30)	(70,13)	(60,23)	(68,6)	(-120,4)	
L1D -60>	(11,31)	(73,25)	(10,31)	(-2,5)	(1,20)	(0,23)	(66,3)	(61,31)	(58,3)	(7,0)	(-8,4)	(65,4)	(59,5)	(60,65)	(22,2)	(21,2)	
L1D -59>	(75,31)	(10,123)	(-53,11)	(-304,6)	(0,86)	(11,84)	(96,2)	(64,12)	(63,10)	(12,31)	(58,21)	(60,97)	(21,7)	(59,125)	(65,10)	(1,45)	
L1D -58>	(4,6)	(58,66)	(-4,2)	(91,0)	(11,31)	(0,18)	(59,21)	(63,7)	(-55,1)	(1,8)	(16,2)	(-42,2)	(-1,4)	(56,2)	(-5,3)	(57,15)	
L1D -57>	(4,13)	(-62,1)	(57,99)	(133,22)	(1,84)	(58,98)	(0,73)	(55,8)	(54,8)	(-6,7)	(-16,8)	(271,11)	(62,22)	(15,11)	(198,22)	(-5,6)	
L1D -56>	(61,17)	(194,7)	(4,6)	(60,6)	(-2,8)	(55,11)	(15,15)	(54,11)	(56,88)	(0,46)	(1,37)	(-94,8)	(52,4)	(57,84)	(59,5)	(219,5)	
L1D -55>	(-2,30)	(1,86)	(-3,9)	(56,54)	(-68,1)	(14,16)	(-6,27)	(61,15)	(0,57)	(-174,6)	(60,25)	(55,83)	(-205,20)	(54,19)	(91,11)	(93,6)	
L1D -54>	(22,73)	(19,61)	(83,60)	(21,127)	(1,45)	(85,52)	(-2,18)	(54,97)	(328,13)	(60,15)	(47,2)	(86,20)	(55,44)	(14,17)	(59,21)	(0,39)	
L1D -53>	(52,12)	(4,5)	(1,39)	(21,12)	(0,31)	(53,76)	(54,33)	(153,11)	(13,10)	(85,4)	(-2,10)	(-306,1)	(59,10)	(-3,3)	(45,19)	(50,4)	
L1D -52>	(0,37)	(4,9)	(1,27)	(2,1)	(-2,11)	(-1,42)	(-191,4)	(57,11)	(52,90)	(53,46)	(102,5)	(17,5)	(45,9)	(13,21)	(51,20)	(3,9)	
L1D -51>	(-2,16)	(57,10)	(4,2)	(72,5)	(50,14)	(12,21)	(-3,5)	(1,37)	(0,29)	(89,2)	(51,101)	(52,38)	(43,19)	(24,4)	(49,5)	(-10,1)	
L1D -50>	(-11,36)	(12,18)	(1,20)	(-1,5)	(56,4)	(-10,34)	(53,7)	(4,8)	(50,111)	(0,35)	(-300,1)	(49,13)	(51,68)	(19,9)	(55,3)	(83,11)	
L1D -49>	(282,40)	(11,77)	(-10,127)	(283,47)	(-2,41)	(43,62)	(1,43)	(284,21)	(49,45)	(-3,16)	(0,44)	(50,101)	(48,18)	(-94,1)	(-52,11)	(-62,9)	
L1D -48>	(11,78)	(48,100)	(21,26)	(-290,96)	(-292,6)	(54,17)	(0,105)	(53,19)	(45,8)	(20,14)	(1,40)	(2,6)	(272,6)	(-18,4)	(-46,9)	(-2,10)	
L1D -47>	(10,80)	(-3,6)	(47,93)	(54,21)	(-319,10)	(4,5)	(131,5)	(48,60)	(1,19)	(0,36)	(-17,3)	(-124,9)	(52,6)	(-16,1)	(188,7)	(-2,2)	
L1D -46>	(46,101)	(50,26)	(172,6)	(95,8)	(1,23)	(94,1)	(47,47)	(0,34)	(10,11)	(51,8)	(49,29)	(80,6)	(65,14)	(3,5)	(-3,5)	(45,18)	
L1D -45>	(6,13)	(9,89)	(46,93)	(-2,28)	(44,54)	(52,31)	(45,104)	(1,79)	(47,26)	(50,14)	(22,13)	(-418,8)	(-3,12)	(0,127)	(-11,1)	(-12,21)	
L1D -44>	(1,17)	(43,34)	(9,21)	(-8,6)	(-3,3)	(42,9)	(44,90)	(-2,22)	(50,35)	(21,7)	(0,62)	(-13,6)	(-254,2)	(41,1)	(49,8)	(45,33)	
L1D -43>	(65,3)	(27,12)	(44,100)	(53,1)	(41,8)	(8,22)	(9,2)	(62,7)	(0,14)	(36,12)	(1,20)	(43,59)	(45,6)	(-5,2)	(30,5)	(32,5)	
L1D -42>	(30,100)	(43,50)	(8,41)	(149,11)	(38,13)	(-72,6)	(0,55)	(35,1)	(36,45)	(65,4)	(42,69)	(39,43)	(3,22)	(1,35)	(40,6)	(34,42)	
L1D -41>	(7,77)	(0,90)	(40,30)	(91,17)	(35,10)	(65,9)	(4,20)	(41,70)	(42,63)	(-40,5)	(-3,12)	(1,24)	(-16,1)	(8,13)	(46,7)	(34,36)	
L1D -40>	(7,53)	(40,65)	(46,5)	(-12,3)	(-3,3)	(0,31)	(44,4)	(34,2)	(103,5)	(-156,10)	(1,24)	(-25,5)	(256,5)	(41,68)	(45,2)	(8,8)	
L1D -39>	(6,28)	(1,48)	(39,117)	(42,46)	(-4,14)	(41,40)	(34,21)	(9,41)	(0,44)	(38,61)	(63,1)	(40,63)	(131,3)	(32,30)	(-5,5)	(-2,7)	
L1D -38>	(2,8)	(-2,8)	(4,70)	(6,52)	(34,41)	(-1,22)	(-19,1)	(37,27)	(65,9)	(7,7)	(0,70)	(-3,8)	(36,38)	(39,124)	(38,126)	(32,51)	
L1D -37>	(14,4)	(5,70)	(-6,6)	(37,64)	(26,3)	(-3,10)	(0,40)	(1,30)	(38,47)	(39,5)	(6,16)	(42,2)	(36,10)	(-1,3)	(43,6)	(-11,21)	
L1D -36>	(5,24)	(37,51)	(-59,3)	(2,4)	(39,30)	(36,83)	(42,14)	(1,28)	(0,46)	(-21,2)	(38,8)	(34,27)	(49,17)	(35,31)	(-35,4)	(41,14)	
L1D -35>	(35,61)	(4,8)	(8,8)	(36,89)	(-56,4)	(33,9)	(29,3)	(-15,4)	(0,41)	(28,4)	(-3,5)	(27,10)	(1,22)	(34,21)	(5,6)	(-136,5)	
L1D -34>	(31,14)	(42,22)	(-4,19)	(0,61)	(33,1)	(-1,6)	(4,5)	(1,27)	(25,24)	(32,11)	(36,10)	(-136,5)	(34,74)	(35,61)	(-56,6)	(5,4)	
L1D -33>	(29,11)	(-5,17)	(36,25)	(10,48)	(3,11)	(34,100)	(33,73)	(249,9)	(180,7)	(-3,11)	(0,82)	(-133,8)	(38,20)	(-6,55)	(-187,1)	(-1,10)	
L1D -32>	(32,48)	(41,12)	(34,2)	(-328,3)	(39,1)	(33,67)	(6,3)	(30,9)	(0,17)	(38,5)	(-5,1)	(1,18)	(-16,5)	(-32,1)	(60,1)	(4,4)	
L1D -31>	(25,8)	(-138,1)	(-4,10)	(2,4)	(33,7)	(1,30)	(27,11)	(30,31)	(31,50)	(0,35)	(32,78)	(34,4)	(-14,5)	(3,5)	(-7,17)	(37,4)	
L1D -30>	(31,56)	(0,47)	(3,4)	(-46,3)	(21,8)	(1,23)	(6,26)	(4,12)	(-4,6)	(-21,1)	(43,2)	(32,14)	(-14,11)	(30,81)	(-45,2)	(17,14)	
L1D -29>	(17,7)	(1,77)	(-3,4)	(28,22)	(30,63)	(-9,3)	(-216,3)	(32,6)	(31,12)	(29,68)	(21,9)	(-17,1)	(33,15)	(-94,4)	(0,52)	(10,4)	
L1D -28>	(-26,3)	(-5,3)	(16,9)	(1,52)	(22,27)	(28,92)	(-27,3)	(-8,34)	(29,42)	(6,1)	(0,69)	(-1,3)	(-9,10)	(27,3)	(34,11)	(31,34)	
L1D -27>	(0,99)	(1,70)	(-2,10)	(21,22)	(26,39)	(10,13)	(-8,16)	(25,67)	(4,5)	(33,10)	(-5,6)	(37,1)	(28,89)	(31,36)	(32,5)	(27,116)	
L1D -26>	(10,19)	(-5,5)	(15,3)	(18,3)	(13,3)	(27,49)	(-64,8)	(0,37)	(3,8)	(12,3)	(-344,4)	(1,27)	(22,1)	(26,103)	(25,42)	(30,27)	
L1D -25>	(-13,7)	(-7,21)	(10,103)	(0,55)	(26,81)	(-110,6)	(23,33)	(19,49)	(4,10)	(1,14)	(31,7)	(25,91)	(28,55)	(283,1)	(24,15)	(21,10)	
L1D -24>	(-24,2)	(10,24)	(0,112)	(18,4)	(25,17)	(-38,43)	(49,3)	(1,20)	(-7,21)	(-29,7)	(24,62)	(-31,2)	(-33,2)	(11,29)	(-34,14)	(-98,4)	
L1D -23>	(-16,123)	(0,25)	(21,38)	(-22,23)	(-11,15)	(1,55)	(36,76)	(23,96)	(-3,91)	(40,1)	(8,33)	(-20,12)	(-5,54)	(38,33)	(18,42)	(16,114)	
L1D -22>	(23,34)	(6,34)	(26,5)	(-24,2)	(-25,1)	(-4,2)	(-52,3)	(1,39)	(34,4)	(21,23)	(-14,3)	(0,40)	(22,66)	(-79,2)	(20,10)	(-32,2)	
L1D -21>	(-54,4)	(19,10)	(0,62)	(21,96)	(-2,4)	(-25,3)	(22,50)	(20,25)	(-14,3)	(-154,3)	(26,5)	(25,5)	(13,3)	(23,15)	(1,23)	(43,2)	
L1D -20>	(-6,14)	(20,127)	(3,19)	(-8,2)	(21,96)	(12,46)	(43,63)	(-258,5)	(157,9)	(-12,10)	(19,20)	(13,10)	(-51,12)	(33,37)	(10,17)	(22,7)	
L1D -19>	(-31,1)	(6,4)	(17,4)	(-13,6)	(-32,6)	(-81,5)	(21,18)	(154,5)	(0,53)	(24,9)	(18,21)	(19,85)	(-259,10)	(20,63)	(34,7)	(1,34)	
L1D -18>	(25,1)	(34,3)	(-19,4)	(31,2)	(0,52)	(18,67)	(12,18)	(-43,5)	(27,2)	(67,3)	(59,2)	(-7,3)	(1,37)	(17,17)	(19,30)	(21,4)	
L1D -17>	(-470,2)	(18,42)	(-3,2)	(475,4)	(28,2)	(19,1)	(21,2)	(9,1)	(0,32)	(20,7)	(15,4)	(174,1)	(16,16)	(1,25)	(27,2)	(17,65)	
L1D -16>	(0,60)	(-2,3)	(-19,7)	(-4,61)	(-3,8)	(49,4)	(11,12)	(16,90)	(35,3)	(-8,3)	(17,72)	(-18,3)	(15,31)	(63,1)	(-5,10)	(1,43)	
L1D -15>	(11,50)	(-15,42)	(16,67)	(-4,20)	(14,9)	(2,11)	(6,22)	(-89,5)	(0,78)	(44,19)	(-92,6)	(1,84)	(18,10)	(21,25)	(37,1)	(15,101)	
L1D -14>	(14,98)	(21,5)	(3,12)	(44,5)	(25,6)	(1,60)	(6,13)	(0,75)	(13,22)	(15,50)	(36,6)	(8,23)	(-318,1)	(-3,7)	(259,5)	(-5,4)	
L1D -13>	(0,94)	(13,123)	(21,4)	(94,3)	(14,59)	(11,6)	(33,3)	(12,29)	(35,5)	(1,57)	(150,4)	(-48,4)	(-10,14)	(32,4)	(9,1)	(24,8)	
L1D -12>	(8,54)	(11,43)	(12,69)	(13,63)	(-116,7)	(-11,10)	(-15,16)	(-435,1)	(252,2)	(-6,4)	(-20,3)	(-225,7)	(1,43)	(3,7)	(0,54)	(-3,4)	
L1D -11>	(1,71)	(-24,4)	(-6,8)	(-5,10)	(11,121)	(12,58)	(20,28)	(36,5)	(25,1)	(0,68)	(15,9)	(8,6)	(-7,4)	(7,5)	(-8,8)	(-3,6)	
L1D -10>	(1,58)	(11,50)	(16,12)	(10,81)	(-46,6)	(20,1)	(9,66)	(-8,2)	(0,48)	(34,11)	(-7,3)	(17,2)	(97,4)	(92,2)	(-13,2)	(2,17)	
L1D -9>	(1,47)	(-3,4)	(6,12)	(-22,2)	(8,18)	(9,117)	(4,1)	(2,13)	(7,3)	(-32,1)	(12,3)	(0,67)	(-6,2)	(10,56)	(32,1)	(-13,5)	
L1D -8>	(-28,3)	(0,68)	(2,15)	(13,9)	(-13,3)	(-33,3)	(-12,1)	(9,59)	(8,98)	(6,13)	(-21,4)	(-2,9)	(1,46)	(7,22)	(-49,10)	(-1,8)	
L1D -7>	(-1,1)	(9,1)	(-34,1)	(6,2)	(10,0)	(5,2)	(0,5)	(-49,0)	(-6,0)	(7,4)	(1,76)	(8,9)	(40,0)	(-3,0)	(2,0)	(-90,0)	
L1D -6>	(0,72)	(40,3)	(8,23)	(-112,5)	(3,8)	(2,6)	(-146,8)	(4,11)	(1,30)	(9,110)	(-2,1)	(5,31)	(10,8)	(-17,3)	(7,34)	(6,70)	
L1D -5>	(8,3)	(-2,1)	(9,1)	(-26,1)	(-8,4)	(2,3)	(7,3)	(0,11)	(-6,1)	(-19,4)	(1,13)	(4,6)	(3,88)	(6,6)	(-52,3)	(5,8)	
L1D -4>	(8,6)	(9,1)	(-314,2)	(-8,3)	(-25,5)	(-5,2)	(-4,4)	(2,31)	(-1,79)	(3,26)	(1,8)	(-6,4)	(4,10)	(7,10)	(-2,2)	(0,35)	
L1D -3>	(-2,1)	(3,79)	(-25,0)	(-6,0)	(9,0)	(2,0)	(-1,3)	(0,1)	(8,1)	(13,0)	(227,0)	(1,2)	(6,0)	(233,0)	(5,0)	(7,0)	
L1D -2>	(-1,98)	(2,13)	(1,35)	(-17,1)	(-26,2)	(4,3)	(0,124)	(-11,1)	(-2,1)	(-58,1)	(-4,1)	(3,2)	(8,1)	(-32,1)	(28,0)	(-89,0)	
L1D -1>	(0,127)	(-11,0)	(-7,68)	(-44,0)	(-1,7)	(-36,0)	(5,8)	(2,4)	(1,61)	(-21,1)	(9,0)	(3,25)	(4,2)	(-5,0)	(-8,0)	(10,1)	
L1D 0>	(-8,4)	(0,102)	(3,2)	(-46,1)	(-34,1)	(1,53)	(-66,1)	(-2,8)	(149,1)	(-1,45)	(10,1)	(-6,1)	(-47,1)	(-3,1)	(-7,1)	(8,1)	
L1D 1>	(4,1)	(7,2)	(-1,31)	(-2,15)	(-8,3)	(1,79)	(15,1)	(8,39)	(-42,1)	(96,0)	(2,10)	(-239,0)	(-33,0)	(-35,2)	(0,71)	(-9,1)	
L1D 2>	(6,1)	(-4,14)	(-1,15)	(0,16)	(-3,69)	(-2,81)	(2,3)	(1,12)	(-7,1)	(-35,0)	(-17,0)	(8,1)	(-12,0)	(-28,2)	(-5,7)	(4,2)	
L1D 3>	(-3,40)	(-2,72)	(-40,0)	(-41,0)	(0,14)	(-11,0)	(-39,0)	(-7,0)	(1,2)	(2,3)	(-8,0)	(-1,1)	(-42,0)	(-84,0)	(-173,0)	(-4,0)	
L1D 4>	(0,24)	(1,33)	(-6,7)	(5,14)	(-45,2)	(-8,12)	(3,29)	(32,1)	(-1,8)	(-5,25)	(-3,61)	(2,5)	(-4,78)	(-29,2)	(-2,7)	(-32,4)	
L1D 5>	(-7,5)	(-2,10)	(-33,2)	(145,1)	(-3,1)	(-4,73)	(-39,2)	(1,9)	(2,6)	(-5,50)	(-6,21)	(-11,1)	(33,1)	(32,2)	(-8,2)	(0,10)	
L1D 6>	(-2,18)	(34,12)	(-3,12)	(-4,19)	(1,58)	(-7,5)	(-5,80)	(0,63)	(3,19)	(33,13)	(4,3)	(5,10)	(8,6)	(-1,27)	(-6,45)	(-13,1)	
L1D 7>	(-14,4)	(-4,28)	(-26,7)	(-6,103)	(0,83)	(-8,20)	(34,17)	(35,20)	(-5,22)	(-47,1)	(-1,45)	(-2,38)	(-7,91)	(3,29)	(-19,3)	(1,79)	
L1D 8>	(1,2)	(-2,6)	(-7,11)	(-12,0)	(36,0)	(16,0)	(-1,88)	(-6,0)	(-9,1)	(-8,9)	(-52,0)	(-58,0)	(-4,0)	(-41,0)	(3,1)	(0,5)	
L1D 9>	(-11,3)	(-12,2)	(-6,11)	(-9,24)	(-3,2)	(-8,68)	(241,1)	(-2,13)	(-61,1)	(0,26)	(-20,2)	(1,13)	(-10,9)	(-28,2)	(8,2)	(-1,112)	
L1D 10>	(-6,28)	(-17,8)	(-7,11)	(3,6)	(-271,1)	(-16,18)	(-1,72)	(0,44)	(7,7)	(-2,25)	(-23,9)	(-10,53)	(-8,4)	(-22,14)	(-12,8)	(-9,62)	
L1D 11>	(-29,7)	(3,17)	(-14,30)	(21,11)	(-2,4)	(-11,90)	(0,108)	(-5,6)	(-10,101)	(-12,11)	(-1,63)	(-34,1)	(1,45)	(-6,13)	(-13,8)	(46,18)	
L1D 12>	(-14,8)	(-10,21)	(1,79)	(-12,113)	(-1,27)	(0,112)	(-11,72)	(13,14)	(-8,1)	(-27,14)	(-6,23)	(-13,7)	(-3,6)	(-9,53)	(10,21)	(-36,4)	
L1D 13>	(-2,26)	(13,21)	(1,52)	(27,2)	(-7,5)	(-5,15)	(0,86)	(-13,122)	(-3,4)	(-26,5)	(-12,113)	(20,35)	(-14,5)	(-1,33)	(-23,9)	(-9,9)	
L1D 14>	(-1,36)	(1,41)	(-16,8)	(-26,1)	(-13,94)	(-14,76)	(-17,10)	(-7,9)	(0,90)	(-5,8)	(-10,9)	(20,9)	(-23,13)	(-15,3)	(-8,5)	(-2,22)	
L1D 15>	(-6,19)	(-2,6)	(1,3)	(-8,21)	(0,74)	(-3,15)	(-5,12)	(-19,42)	(-11,6)	(-26,63)	(-14,58)	(-7,10)	(-36,22)	(-15,60)	(-1,22)	(-34,5)	
L1D 16>	(-15,59)	(-17,17)	(-20,64)	(1,51)	(-22,4)	(-16,55)	(-21,3)	(32,33)	(-1,12)	(0,105)	(97,1)	(-23,4)	(31,3)	(-72,2)	(-35,2)	(-2,8)	
L1D 17>	(18,14)	(-11,11)	(-24,4)	(-12,4)	(-6,9)	(-309,3)	(-17,93)	(5,5)	(-9,3)	(-16,57)	(-1,10)	(1,34)	(-18,26)	(0,75)	(-312,1)	(-7,3)	
L1D 18>	(-15,48)	(-6,16)	(-2,10)	(-25,5)	(-18,70)	(-26,1)	(18,23)	(-17,90)	(-16,4)	(-11,45)	(-10,39)	(0,76)	(12,7)	(39,25)	(-19,12)	(1,42)	
L1D 19>	(-26,51)	(1,44)	(-17,45)	(-20,10)	(-38,14)	(-32,1)	(-18,49)	(-36,6)	(0,56)	(-19,77)	(-45,3)	(-9,5)	(23,15)	(-8,26)	(-2,10)	(-1,20)	
L1D 20>	(-7,50)	(-44,34)	(-4,28)	(-26,25)	(-21,9)	(-43,60)	(-33,12)	(-1,9)	(-16,5)	(0,87)	(-22,8)	(-36,3)	(-8,1)	(-19,101)	(-20,67)	(1,34)	
L1D 21>	(-15,6)	(-26,5)	(-35,3)	(15,5)	(-22,33)	(-16,24)	(-7,4)	(-34,57)	(-20,71)	(-2,12)	(-45,10)	(-1,24)	(1,40)	(-21,68)	(0,69)	(-72,2)	
L1D 22>	(-24,16)	(-43,12)	(-108,27)	(12,49)	(-16,13)	(6,6)	(-35,2)	(-7,9)	(65,14)	(-21,45)	(-3,8)	(20,8)	(3,33)	(-1,22)	(0,63)	(-22,74)	
L1D 23>	(2,11)	(-13,6)	(-29,8)	(-23,110)	(-22,115)	(0,125)	(-4,119)	(-1,44)	(19,6)	(-36,69)	(65,32)	(-46,31)	(-39,36)	(-45,15)	(-95,1)	(-2,11)	
L1D 24>	(-27,6)	(-1,49)	(-3,3)	(-28,6)	(-25,7)	(12,8)	(-22,1)	(-24,111)	(-6,9)	(-23,28)	(-26,6)	(1,33)	(0,56)	(7,2)	(27,2)	(29,5)	
L1D 25>	(-1,17)	(-19,5)	(-14,7)	(-38,93)	(-49,36)	(-92,3)	(1,46)	(-26,5)	(0,75)	(-24,39)	(-27,1)	(-4,23)	(-25,125)	(-13,3)	(-21,3)	(-41,2)	
L1D 26>	(-9,49)	(-27,22)	(-30,3)	(-25,40)	(-32,4)	(-181,4)	(-50,18)	(-6,3)	(-1,7)	(-39,37)	(-26,95)	(1,42)	(-21,1)	(0,88)	(19,2)	(6,3)	
L1D 27>	(-9,93)	(1,79)	(-26,103)	(-6,10)	(-16,5)	(-5,8)	(2,9)	(-11,9)	(-32,11)	(-34,7)	(0,121)	(-1,34)	(-22,1)	(-40,11)	(-27,125)	(5,32)	
L1D 28>	(-6,14)	(43,1)	(-11,10)	(-1,22)	(-36,12)	(-28,55)	(-7,31)	(1,20)	(-27,37)	(-15,21)	(-2,12)	(0,70)	(7,4)	(-34,7)	(13,2)	(-38,5)	
L1D 29>	(-24,8)	(-7,117)	(-25,46)	(2,7)	(-29,103)	(-34,17)	(0,52)	(-1,62)	(-42,41)	(-31,41)	(-28,110)	(-12,24)	(-2,7)	(1,58)	(-11,1)	(-30,10)	
L1D 30>	(-20,123)	(-31,31)	(1,77)	(0,115)	(-54,25)	(-32,12)	(-43,25)	(13,28)	(-30,87)	(-29,57)	(5,1)	(-12,23)	(-34,8)	(-36,15)	(-1,22)	(-33,6)	
L1D 31>	(-31,93)	(-34,17)	(6,5)	(1,46)	(-1,15)	(0,64)	(4,4)	(-6,9)	(-30,59)	(-35,16)	(8,38)	(-29,18)	(-27,5)	(-44,31)	(-26,1)	(-136,6)	
L1D 32>	(0,76)	(32,38)	(-29,3)	(-40,9)	(1,48)	(-128,1)	(-96,5)	(-52,5)	(-37,36)	(-38,11)	(-47,3)	(-1,8)	(6,14)	(-31,46)	(-32,53)	(-25,5)	
L1D 33>	(-23,46)	(32,4)	(-38,47)	(0,91)	(-39,78)	(-43,7)	(9,10)	(8,1)	(-30,4)	(-33,70)	(-32,64)	(-41,8)	(-1,35)	(-42,11)	(-9,5)	(1,42)	
L1D 34>	(-28,2)	(0,41)	(-29,4)	(-16,1)	(-41,14)	(1,19)	(-42,4)	(-34,71)	(-44,1)	(-43,2)	(-33,21)	(-40,16)	(-1,14)	(-36,5)	(-26,9)	(-12,10)	
L1D 35>	(32,4)	(-45,14)	(0,97)	(1,38)	(-43,35)	(-42,50)	(-34,67)	(-1,22)	(-35,106)	(6,1)	(3,31)	(-38,14)	(-17,3)	(-44,3)	(-62,6)	(-41,8)	
L1D 36>	(-28,21)	(-34,5)	(1,21)	(0,52)	(-66,1)	(-15,7)	(-44,18)	(-1,16)	(5,3)	(-39,3)	(-30,12)	(-27,3)	(-36,89)	(-2,17)	(-35,51)	(9,8)	
L1D 37>	(-46,23)	(-2,10)	(-129,30)	(0,86)	(-32,12)	(5,16)	(-34,6)	(-5,5)	(-43,8)	(-47,21)	(-36,118)	(1,41)	(-37,75)	(-42,1)	(32,7)	(-1,18)	
L1D 38>	(-24,6)	(0,60)	(-39,80)	(-48,11)	(-6,4)	(-38,86)	(-23,41)	(-42,21)	(1,29)	(-49,12)	(-129,12)	(-64,1)	(-37,56)	(4,10)	(5,8)	(-5,20)	
L1D 39>	(0,83)	(-8,5)	(255,1)	(-31,41)	(-7,25)	(-38,50)	(-5,13)	(-41,15)	(6,12)	(-42,7)	(-6,23)	(1,17)	(-39,127)	(-22,5)	(2,17)	(3,21)	
L1D 40>	(-4,93)	(-32,10)	(-1,29)	(0,77)	(1,28)	(-6,1)	(-136,4)	(-40,66)	(-53,11)	(-52,13)	(-58,9)	(-39,125)	(-2,9)	(-55,5)	(-20,4)	(-57,3)	
L1D 41>	(-40,54)	(6,3)	(-1,9)	(-41,89)	(0,42)	(-57,2)	(1,17)	(-55,4)	(-2,9)	(-34,4)	(-38,4)	(-54,4)	(-32,5)	(-42,2)	(4,2)	(-3,1)	
L1D 42>	(-35,11)	(-42,75)	(1,105)	(65,6)	(-41,39)	(-38,16)	(-31,1)	(-33,25)	(0,87)	(-18,4)	(-4,39)	(-1,16)	(-25,6)	(-56,10)	(-9,20)	(6,8)	
L1D 43>	(-152,1)	(0,92)	(65,5)	(-2,13)	(-39,3)	(-42,56)	(-59,3)	(-18,4)	(-12,7)	(5,3)	(1,47)	(-43,102)	(-32,99)	(-25,12)	(-1,19)	(-4,87)	
L1D 44>	(-42,50)	(-4,2)	(0,44)	(-61,2)	(65,2)	(-43,30)	(-1,13)	(-58,1)	(-12,3)	(-44,91)	(-321,1)	(1,18)	(-2,7)	(-33,23)	(13,14)	(-45,4)	
L1D 45>	(-45,119)	(0,82)	(12,1)	(-23,23)	(-4,7)	(-47,5)	(-28,6)	(-42,6)	(-5,5)	(-1,51)	(-44,66)	(-43,100)	(-7,23)	(1,30)	(-36,9)	(3,4)	
L1D 46>	(-46,126)	(-60,19)	(-59,19)	(-49,66)	(-31,4)	(0,42)	(-30,22)	(-1,6)	(11,12)	(1,28)	(7,9)	(-42,4)	(-45,73)	(-35,12)	(-38,1)	(-47,6)	
L1D 47>	(-61,15)	(0,89)	(-47,123)	(-50,61)	(-60,15)	(-46,42)	(-44,3)	(-1,8)	(10,8)	(-43,8)	(3,3)	(-36,80)	(1,15)	(157,6)	(-48,17)	(-24,1)	
L1D 48>	(-47,52)	(-45,2)	(0,74)	(1,21)	(-5,3)	(157,3)	(3,2)	(-78,2)	(-48,24)	(-1,5)	(6,5)	(5,9)	(-175,1)	(-60,1)	(-37,4)	(-65,1)	
L1D 49>	(-34,82)	(-50,3)	(-47,19)	(-48,27)	(-38,48)	(-29,3)	(-24,2)	(-69,2)	(-49,10)	(0,49)	(1,27)	(8,4)	(4,4)	(-32,8)	(-1,5)	(-102,2)	
L1D 50>	(0,46)	(-50,84)	(-53,2)	(-6,2)	(5,2)	(-2,10)	(3,4)	(-1,22)	(1,28)	(2,8)	(-37,3)	(-51,5)	(-39,75)	(-60,2)	(-107,1)	(-49,55)	
L1D 51>	(-51,53)	(-2,11)	(0,41)	(-50,84)	(6,7)	(-158,2)	(-52,4)	(-53,4)	(-1,6)	(1,20)	(-3,3)	(-55,2)	(-35,3)	(-54,3)	(-61,5)	(-40,3)	
L1D 52>	(-35,4)	(1,43)	(-53,18)	(-1,28)	(2,7)	(6,7)	(-49,6)	(-51,53)	(-52,99)	(-54,5)	(-2,10)	(0,81)	(-19,3)	(-41,24)	(-7,1)	(-159,2)	
L1D 53>	(1,65)	(-1,30)	(0,85)	(-53,84)	(-50,5)	(6,17)	(-42,34)	(-52,64)	(4,24)	(-54,5)	(-49,15)	(-62,7)	(-2,6)	(-3,3)	(-35,13)	(-342,1)	
L1D 54>	(-223,3)	(-54,75)	(1,125)	(-6,4)	(-5,7)	(0,50)	(-53,51)	(305,1)	(-2,8)	(3,7)	(-11,3)	(5,4)	(-429,2)	(2,2)	(-226,2)	(-1,9)	
L1D 55>	(5,12)	(-11,5)	(-28,3)	(0,60)	(6,7)	(-16,5)	(-26,3)	(-54,53)	(-56,6)	(-136,2)	(-18,4)	(-59,3)	(-3,2)	(-55,64)	(3,3)	(2,7)	
L1D 56>	(-56,64)	(0,88)	(1,38)	(5,4)	(-4,4)	(-55,53)	(-2,3)	(-58,1)	(-124,3)	(-137,3)	(-40,2)	(-5,2)	(-110,2)	(-1,21)	(-138,2)	(-57,2)	
L1D 57>	(-3,5)	(5,9)	(-56,82)	(1,29)	(0,98)	(-61,3)	(-57,83)	(3,2)	(-60,5)	(16,2)	(22,2)	(-6,2)	(6,2)	(-1,11)	(-12,1)	(-2,9)	
L1D 58>	(5,3)	(-139,3)	(1,46)	(-1,37)	(-3,3)	(0,114)	(4,11)	(-59,22)	(-63,7)	(-58,107)	(6,3)	(-2,16)	(-54,12)	(-152,1)	(-57,91)	(60,5)	
L1D 59>	(0,94)	(-5,5)	(3,9)	(5,17)	(1,47)	(-19,13)	(11,4)	(6,9)	(-59,89)	(-87,2)	(-65,4)	(-22,14)	(-57,8)	(-58,56)	(-2,11)	(-1,14)	
L1D 60>	(-65,2)	(6,5)	(-29,2)	(-60,83)	(0,41)	(-59,71)	(-2,10)	(-1,14)	(-5,4)	(1,14)	(3,2)	(-66,3)	(-121,2)	(5,2)	(-256,2)	(-123,3)	
L1D 61>	(-61,95)	(-1,12)	(0,41)	(-3,5)	(-78,5)	(5,9)	(-11,4)	(-60,87)	(82,1)	(4,3)	(-70,2)	(-8,3)	(-55,3)	(65,15)	(-62,4)	(1,19)	
L1D 62>	(6,5)	(1,28)	(0,51)	(-62,76)	(-61,60)	(-2,8)	(-1,11)	(-3,2)	(-4,2)	(-63,3)	(2,4)	(-18,7)	(-171,2)	(-170,3)	(-100,2)	(-20,1)	
L1D 63>	(1,55)	(-63,71)	(-1,13)	(0,101)	(65,34)	(-64,10)	(-62,21)	(6,7)	(-27,1)	(-60,5)	(-2,5)	(-73,3)	(2,6)	(-103,6)	(-72,4)	(-210,7)	
L1D 64>	(-78,3)	(64,24)	(-201,3)	(-63,75)	(1,85)	(4,10)	(0,84)	(-1,17)	(-104,1)	(65,6)	(-115,2)	(6,4)	(-65,3)	(-2,9)	(2,5)	(-64,82)	
L1D 65>	(-64,125)	(-62,6)	(0,65)	(-63,3)	(-109,2)	(-2,9)	(-65,53)	(4,2)	(2,4)	(1,23)	(-115,3)	(-19,2)	(-1,22)	(-201,4)	(-67,1)	(-78,1)	
L1D 66>	(-62,76)	(-59,37)	(2,116)	(5,29)	(-1,19)	(-60,33)	(-48,8)	(-111,11)	(-110,9)	(-66,89)	(1,21)	(-34,6)	(-2,2)	(-203,5)	(-65,108)	(0,80)	
L1D 67>	(-14,5)	(1,36)	(-67,89)	(4,115)	(-60,22)	(17,10)	(-47,12)	(-59,17)	(-123,6)	(-66,110)	(-48,3)	(-50,67)	(5,32)	(0,67)	(-1,10)	(-85,3)	
L1D 68>	(0,91)	(-68,70)	(-58,7)	(-1,8)	(-59,19)	(-82,7)	(-77,1)	(1,33)	(17,12)	(5,9)	(-113,5)	(-48,10)	(16,8)	(-67,114)	(-69,10)	(-129,5)	
L1D 69>	(10,17)	(-54,99)	(11,4)	(0,66)	(1,42)	(-12,3)	(-1,15)	(-53,26)	(-118,5)	(-70,10)	(-60,1)	(-69,99)	(5,3)	(-110,2)	(-68,45)	(-23,3)	
L1D 70>	(-54,84)	(0,73)	(-53,22)	(5,13)	(-69,91)	(-2,27)	(1,37)	(-1,25)	(-70,108)	(6,5)	(-5,1)	(10,8)	(-110,7)	(-72,2)	(-136,2)	(-138,2)	
L1D 71>	(1,37)	(0,81)	(-194,3)	(-71,107)	(6,9)	(-70,49)	(-1,17)	(-127,5)	(-27,3)	(-5,4)	(-79,4)	(-216,3)	(-34,1)	(5,5)	(-49,3)	(-73,3)	
L1D 72>	(-18,4)	(-20,11)	(-142,4)	(-72,69)	(6,7)	(1,33)	(0,82)	(-1,6)	(-71,84)	(-136,4)	(-269,1)	(-31,3)	(-63,5)	(-77,5)	(-14,32)	(-2,3)	
L1D 73>	(-73,110)	(0,81)	(-2,15)	(-48,102)	(-375,2)	(-130,2)	(-72,67)	(1,39)	(-37,17)	(-1,23)	(-82,2)	(-29,2)	(-74,4)	(-81,2)	(6,10)	(-70,3)	
L1D 74>	(20,54)	(-73,59)	(-44,3)	(-64,1)	(21,24)	(-43,15)	(0,65)	(-74,52)	(6,4)	(-75,8)	(1,32)	(-1,14)	(-30,3)	(-38,2)	(5,5)	(-2,8)	
[...]
L1D 477>	(-118,1)	(1,3)	(-393,1)	(1,0)	(1,0)	(1,0)	(1,0)	(1,0)	(1,0)	(1,0)	(1,0)	(1,0)	(1,0)	(1,0)	(1,0)	(1,0)	
L1D 478>	(-247,1)	(-431,1)	(-227,1)	(-67,1)	(0,12)	(1,4)	(-478,4)	(1,0)	(1,0)	(1,0)	(1,0)	(1,0)	(1,0)	(1,0)	(1,0)	(1,0)	
L1D 479>	(0,2)	(-277,1)	(-203,1)	(-390,1)	(-311,1)	(-235,1)	(1,2)	(-317,1)	(-302,1)	(-478,1)	(1,0)	(1,0)	(1,0)	(1,0)	(1,0)	(1,0)	
L1D 480>	(-247,1)	(1,2)	(1,0)	(1,0)	(1,0)	(1,0)	(1,0)	(1,0)	(1,0)	(1,0)	(1,0)	(1,0)	(1,0)	(1,0)	(1,0)	(1,0)	
L1D 481>	(-481,2)	(-340,1)	(-243,1)	(-102,1)	(1,1)	(-480,1)	(-1,1)	(1,0)	(1,0)	(1,0)	(1,0)	(1,0)	(1,0)	(1,0)	(1,0)	(1,0)	
L1D 482>	(-414,1)	(0,1)	(1,1)	(-260,1)	(-196,1)	(1,0)	(1,0)	(1,0)	(1,0)	(1,0)	(1,0)	(1,0)	(1,0)	(1,0)	(1,0)	(1,0)	
L1D 483>	(-355,1)	(-102,1)	(1,1)	(1,0)	(1,0)	(1,0)	(1,0)	(1,0)	(1,0)	(1,0)	(1,0)	(1,0)	(1,0)	(1,0)	(1,0)	(1,0)	
L1D 484>	(-430,1)	(0,2)	(1,0)	(1,0)	(1,0)	(1,0)	(1,0)	(1,0)	(1,0)	(1,0)	(1,0)	(1,0)	(1,0)	(1,0)	(1,0)	(1,0)	
L1D 485>	(1,1)	(-272,1)	(-231,1)	(1,0)	(1,0)	(1,0)	(1,0)	(1,0)	(1,0)	(1,0)	(1,0)	(1,0)	(1,0)	(1,0)	(1,0)	(1,0)	
L1D 486>	(-398,1)	(0,16)	(-486,13)	(1,5)	(-1,2)	(-485,3)	(1,0)	(1,0)	(1,0)	(1,0)	(1,0)	(1,0)	(1,0)	(1,0)	(1,0)	(1,0)	
L1D 487>	(0,2)	(-290,1)	(-374,1)	(-486,8)	(-128,1)	(1,0)	(1,0)	(1,0)	(1,0)	(1,0)	(1,0)	(1,0)	(1,0)	(1,0)	(1,0)	(1,0)	
L1D 488>	(1,1)	(-396,1)	(-468,1)	(-127,1)	(1,0)	(1,0)	(1,0)	(1,0)	(1,0)	(1,0)	(1,0)	(1,0)	(1,0)	(1,0)	(1,0)	(1,0)	
L1D 489>	(0,1)	(-309,1)	(-296,1)	(-445,1)	(-397,1)	(1,0)	(1,0)	(1,0)	(1,0)	(1,0)	(1,0)	(1,0)	(1,0)	(1,0)	(1,0)	(1,0)	
L1D 490>	(-256,1)	(-407,1)	(-233,1)	(0,1)	(-1,1)	(-489,1)	(1,0)	(1,0)	(1,0)	(1,0)	(1,0)	(1,0)	(1,0)	(1,0)	(1,0)	(1,0)	
L1D 491>	(-286,1)	(-406,1)	(0,1)	(-91,1)	(1,0)	(1,0)	(1,0)	(1,0)	(1,0)	(1,0)	(1,0)	(1,0)	(1,0)	(1,0)	(1,0)	(1,0)	
L1D 492>	(1,1)	(-388,1)	(1,0)	(1,0)	(1,0)	(1,0)	(1,0)	(1,0)	(1,0)	(1,0)	(1,0)	(1,0)	(1,0)	(1,0)	(1,0)	(1,0)	
L1D 493>	(1,0)	(1,0)	(1,0)	(1,0)	(1,0)	(1,0)	(1,0)	(1,0)	(1,0)	(1,0)	(1,0)	(1,0)	(1,0)	(1,0)	(1,0)	(1,0)	
L1D 494>	(-494,1)	(1,0)	(1,0)	(1,0)	(1,0)	(1,0)	(1,0)	(1,0)	(1,0)	(1,0)	(1,0)	(1,0)	(1,0)	(1,0)	(1,0)	(1,0)	
L1D 495>	(1,0)	(1,0)	(1,0)	(1,0)	(1,0)	(1,0)	(1,0)	(1,0)	(1,0)	(1,0)	(1,0)	(1,0)	(1,0)	(1,0)	(1,0)	(1,0)	
L1D 496>	(-251,1)	(-204,1)	(1,1)	(0,1)	(1,0)	(1,0)	(1,0)	(1,0)	(1,0)	(1,0)	(1,0)	(1,0)	(1,0)	(1,0)	(1,0)	(1,0)	
L1D 497>	(-280,1)	(-240,1)	(-222,1)	(1,0)	(1,0)	(1,0)	(1,0)	(1,0)	(1,0)	(1,0)	(1,0)	(1,0)	(1,0)	(1,0)	(1,0)	(1,0)	
L1D 498>	(-393,1)	(-332,1)	(1,0)	(1,0)	(1,0)	(1,0)	(1,0)	(1,0)	(1,0)	(1,0)	(1,0)	(1,0)	(1,0)	(1,0)	(1,0)	(1,0)	
L1D 499>	(0,1)	(1,0)	(1,0)	(1,0)	(1,0)	(1,0)	(1,0)	(1,0)	(1,0)	(1,0)	(1,0)	(1,0)	(1,0)	(1,0)	(1,0)	(1,0)	
L1D 500>	(1,0)	(1,0)	(1,0)	(1,0)	(1,0)	(1,0)	(1,0)	(1,0)	(1,0)	(1,0)	(1,0)	(1,0)	(1,0)	(1,0)	(1,0)	(1,0)	
L1D 501>	(-15,6)	(-406,1)	(1,0)	(1,0)	(1,0)	(1,0)	(1,0)	(1,0)	(1,0)	(1,0)	(1,0)	(1,0)	(1,0)	(1,0)	(1,0)	(1,0)	
L1D 502>	(-263,1)	(-243,1)	(-304,1)	(-334,1)	(1,1)	(1,0)	(1,0)	(1,0)	(1,0)	(1,0)	(1,0)	(1,0)	(1,0)	(1,0)	(1,0)	(1,0)	
L1D 503>	(1,0)	(1,0)	(1,0)	(1,0)	(1,0)	(1,0)	(1,0)	(1,0)	(1,0)	(1,0)	(1,0)	(1,0)	(1,0)	(1,0)	(1,0)	(1,0)	
L1D 504>	(0,1)	(1,0)	(1,0)	(1,0)	(1,0)	(1,0)	(1,0)	(1,0)	(1,0)	(1,0)	(1,0)	(1,0)	(1,0)	(1,0)	(1,0)	(1,0)	
L1D 505>	(-436,1)	(-9,1)	(-322,1)	(0,1)	(1,0)	(1,0)	(1,0)	(1,0)	(1,0)	(1,0)	(1,0)	(1,0)	(1,0)	(1,0)	(1,0)	(1,0)	
L1D 506>	(-231,1)	(-2,1)	(1,0)	(1,0)	(1,0)	(1,0)	(1,0)	(1,0)	(1,0)	(1,0)	(1,0)	(1,0)	(1,0)	(1,0)	(1,0)	(1,0)	
L1D 507>	(1,0)	(1,0)	(1,0)	(1,0)	(1,0)	(1,0)	(1,0)	(1,0)	(1,0)	(1,0)	(1,0)	(1,0)	(1,0)	(1,0)	(1,0)	(1,0)	
L1D 508>	(1,0)	(1,0)	(1,0)	(1,0)	(1,0)	(1,0)	(1,0)	(1,0)	(1,0)	(1,0)	(1,0)	(1,0)	(1,0)	(1,0)	(1,0)	(1,0)	
L1D 509>	(-474,1)	(1,0)	(1,0)	(1,0)	(1,0)	(1,0)	(1,0)	(1,0)	(1,0)	(1,0)	(1,0)	(1,0)	(1,0)	(1,0)	(1,0)	(1,0)	
L1D 510>	(1,0)	(1,0)	(1,0)	(1,0)	(1,0)	(1,0)	(1,0)	(1,0)	(1,0)	(1,0)	(1,0)	(1,0)	(1,0)	(1,0)	(1,0)	(1,0)	
L1D 511>	(1,0)	(1,0)	(1,0)	(1,0)	(1,0)	(1,0)	(1,0)	(1,0)	(1,0)	(1,0)	(1,0)	(1,0)	(1,0)	(1,0)	(1,0)	(1,0)	

L2C -64>	(2,47)	(-5,94)	(1,172)	(-1,65)	(-6,21)	(3,34)	(7,12)	(5,22)	(16,16)	(0,251)	(-34,1)	(4,32)	(-2,132)	(-14,13)	(-12,20)	(-11,14)	
L2C -63>	(61,1)	(38,1)	(1,1)	(1,0)	(1,0)	(1,0)	(1,0)	(1,0)	(1,0)	(1,0)	(1,0)	(1,0)	(1,0)	(1,0)	(1,0)	(1,0)	
L2C -62>	(20,1)	(7,1)	(1,1)	(61,1)	(1,0)	(1,0)	(1,0)	(1,0)	(1,0)	(1,0)	(1,0)	(1,0)	(1,0)	(1,0)	(1,0)	(1,0)	
L2C -61>	(36,1)	(1,1)	(25,1)	(31,1)	(40,1)	(34,1)	(1,0)	(1,0)	(1,0)	(1,0)	(1,0)	(1,0)	(1,0)	(1,0)	(1,0)	(1,0)	
L2C -60>	(1,4)	(25,2)	(0,2)	(33,1)	(17,1)	(59,1)	(1,0)	(1,0)	(1,0)	(1,0)	(1,0)	(1,0)	(1,0)	(1,0)	(1,0)	(1,0)	
L2C -59>	(-2,1)	(1,8)	(0,2)	(46,1)	(8,4)	(47,1)	(30,1)	(28,2)	(-3,1)	(16,1)	(34,1)	(59,2)	(33,1)	(50,1)	(13,1)	(1,0)	
L2C -58>	(0,2)	(1,5)	(-2,1)	(17,1)	(61,1)	(59,4)	(37,1)	(23,2)	(6,1)	(28,1)	(58,2)	(10,1)	(19,1)	(3,1)	(1,0)	(1,0)	
L2C -57>	(45,1)	(39,1)	(23,1)	(1,8)	(-2,1)	(58,4)	(3,1)	(32,1)	(56,1)	(21,1)	(57,3)	(12,1)	(26,1)	(53,1)	(22,1)	(59,1)	
L2C -56>	(17,2)	(2,1)	(1,6)	(24,1)	(41,2)	(43,1)	(-1,3)	(7,1)	(49,1)	(50,1)	(44,1)	(-2,3)	(53,1)	(56,1)	(1,0)	(1,0)	
L2C -55>	(1,11)	(8,2)	(50,1)	(40,1)	(0,1)	(49,1)	(52,1)	(10,1)	(16,1)	(53,1)	(11,1)	(-4,2)	(55,2)	(26,1)	(4,1)	(-3,1)	
L2C -54>	(1,11)	(-1,1)	(54,4)	(50,1)	(36,2)	(14,1)	(53,1)	(45,2)	(2,2)	(24,1)	(11,1)	(46,3)	(44,1)	(8,1)	(0,3)	(55,2)	
L2C -53>	(59,1)	(5,2)	(8,3)	(32,1)	(1,10)	(49,1)	(53,4)	(9,1)	(4,3)	(-3,1)	(15,1)	(-7,1)	(24,1)	(7,1)	(40,1)	(45,1)	
L2C -52>	(1,14)	(0,3)	(47,3)	(8,4)	(36,1)	(4,2)	(52,1)	(25,1)	(30,2)	(45,1)	(3,1)	(53,2)	(24,1)	(-6,1)	(32,1)	(17,1)	
L2C -51>	(1,17)	(43,1)	(52,4)	(37,2)	(38,1)	(18,2)	(3,2)	(9,1)	(48,1)	(36,1)	(49,1)	(51,3)	(-9,1)	(-7,2)	(10,1)	(34,1)	
L2C -50>	(1,12)	(0,4)	(3,2)	(9,2)	(2,2)	(46,2)	(8,3)	(50,2)	(34,2)	(13,2)	(22,1)	(31,1)	(-2,3)	(30,1)	(-3,1)	(14,1)	
L2C -49>	(-3,1)	(1,11)	(44,1)	(3,2)	(10,2)	(0,4)	(15,1)	(50,3)	(48,2)	(6,1)	(49,6)	(39,1)	(53,1)	(11,3)	(18,2)	(26,2)	
L2C -48>	(8,3)	(31,2)	(6,2)	(0,7)	(48,7)	(5,3)	(-6,2)	(3,1)	(49,7)	(9,2)	(1,6)	(46,2)	(36,1)	(40,2)	(-3,1)	(30,1)	
L2C -47>	(1,13)	(47,4)	(-13,1)	(8,2)	(26,1)	(42,4)	(33,1)	(46,4)	(14,1)	(49,1)	(20,2)	(7,1)	(48,2)	(17,2)	(0,4)	(35,1)	
L2C -46>	(14,2)	(1,17)	(47,3)	(25,2)	(46,1)	(50,2)	(2,2)	(37,1)	(48,2)	(33,1)	(9,2)	(34,3)	(0,9)	(20,2)	(49,2)	(41,1)	
L2C -45>	(3,4)	(-3,2)	(2,3)	(1,2)	(-1,4)	(41,1)	(45,12)	(40,2)	(33,1)	(-12,1)	(-2,2)	(30,3)	(0,5)	(4,2)	(27,2)	(21,1)	
L2C -44>	(47,2)	(0,6)	(-6,3)	(39,3)	(23,1)	(54,1)	(10,1)	(8,7)	(43,3)	(1,19)	(22,2)	(46,2)	(49,2)	(37,2)	(-9,1)	(4,2)	
L2C -43>	(9,2)	(-1,5)	(1,16)	(38,3)	(53,1)	(42,2)	(4,2)	(45,2)	(26,2)	(0,11)	(-5,2)	(-9,1)	(44,3)	(43,6)	(2,2)	(6,1)	
L2C -42>	(42,8)	(49,1)	(17,1)	(37,1)	(2,3)	(43,2)	(34,3)	(-1,3)	(0,4)	(1,13)	(-9,1)	(3,3)	(31,1)	(38,1)	(51,3)	(40,4)	
L2C -41>	(1,22)	(17,1)	(-16,2)	(50,2)	(-9,3)	(16,2)	(28,1)	(-4,2)	(53,1)	(42,2)	(-1,2)	(20,3)	(3,1)	(0,3)	(41,2)	(19,2)	
L2C -40>	(37,1)	(1,14)	(2,5)	(4,3)	(38,1)	(6,2)	(35,3)	(25,3)	(8,1)	(26,4)	(40,8)	(32,4)	(5,1)	(15,2)	(57,1)	(0,13)	
L2C -39>	(1,25)	(3,2)	(39,4)	(2,3)	(-3,3)	(0,2)	(22,2)	(35,1)	(18,2)	(40,6)	(9,1)	(-16,1)	(13,1)	(41,1)	(6,3)	(17,1)	
L2C -38>	(-1,2)	(0,7)	(-4,4)	(41,2)	(34,1)	(1,24)	(22,2)	(-21,2)	(17,4)	(2,3)	(38,9)	(-16,1)	(37,5)	(5,4)	(16,2)	(-3,2)	
L2C -37>	(1,41)	(39,4)	(4,1)	(-14,3)	(32,3)	(50,1)	(2,7)	(37,7)	(38,4)	(-3,1)	(9,1)	(-1,3)	(8,2)	(13,3)	(18,2)	(5,3)	
L2C -36>	(1,18)	(37,4)	(36,2)	(24,1)	(23,4)	(-3,1)	(19,3)	(2,4)	(28,2)	(0,6)	(32,3)	(-12,1)	(34,2)	(13,3)	(38,2)	(44,2)	
L2C -35>	(40,2)	(1,21)	(21,3)	(36,2)	(24,1)	(33,1)	(35,13)	(30,4)	(2,3)	(43,2)	(3,2)	(6,1)	(32,5)	(51,1)	(0,15)	(-3,1)	
L2C -34>	(8,8)	(1,37)	(37,6)	(13,3)	(34,6)	(35,1)	(31,3)	(11,3)	(29,2)	(41,1)	(-7,1)	(30,6)	(-5,2)	(52,2)	(50,2)	(-6,2)	
L2C -33>	(33,15)	(1,33)	(0,13)	(6,3)	(13,2)	(-1,4)	(15,2)	(31,5)	(3,4)	(34,7)	(32,3)	(30,3)	(48,2)	(8,2)	(29,1)	(41,1)	
L2C -32>	(1,25)	(-11,3)	(13,4)	(0,15)	(33,6)	(32,28)	(-2,5)	(36,2)	(10,3)	(-3,2)	(31,5)	(-1,7)	(17,2)	(30,2)	(4,2)	(-15,1)	
L2C -31>	(9,4)	(1,32)	(26,2)	(32,3)	(0,23)	(21,3)	(-2,2)	(31,14)	(-23,1)	(42,2)	(29,3)	(16,4)	(-3,2)	(8,3)	(47,3)	(25,1)	
L2C -30>	(7,3)	(-17,3)	(31,11)	(-14,1)	(0,6)	(1,27)	(23,3)	(8,9)	(27,2)	(30,14)	(36,3)	(11,3)	(12,3)	(10,4)	(16,2)	(9,3)	
L2C -29>	(1,25)	(30,7)	(11,2)	(-2,5)	(27,4)	(0,9)	(8,5)	(-4,3)	(18,4)	(13,1)	(28,6)	(2,4)	(-22,1)	(24,3)	(-12,3)	(36,1)	
L2C -28>	(-26,2)	(13,5)	(29,4)	(-2,3)	(1,22)	(-1,10)	(-4,5)	(22,2)	(-3,4)	(3,3)	(24,1)	(-17,3)	(28,4)	(18,3)	(-9,2)	(0,12)	
L2C -27>	(24,4)	(28,6)	(1,33)	(20,1)	(0,10)	(-11,4)	(8,3)	(-8,2)	(9,3)	(29,2)	(14,2)	(27,12)	(22,2)	(26,3)	(-10,2)	(10,9)	
L2C -26>	(-8,4)	(0,7)	(43,1)	(27,12)	(-1,4)	(2,5)	(-10,3)	(39,2)	(-5,4)	(6,3)	(15,2)	(17,5)	(-6,3)	(26,4)	(1,34)	(10,5)	
L2C -25>	(1,38)	(0,19)	(24,4)	(-1,5)	(11,2)	(15,4)	(25,15)	(13,4)	(-3,3)	(-8,3)	(4,3)	(26,5)	(-11,2)	(33,4)	(54,2)	(20,1)	
L2C -24>	(0,14)	(24,21)	(14,1)	(-8,2)	(1,33)	(19,3)	(-16,1)	(7,3)	(23,3)	(25,12)	(-35,1)	(52,1)	(28,2)	(8,4)	(-5,4)	(11,4)	
L2C -23>	(3,3)	(23,20)	(-5,5)	(1,30)	(0,9)	(-8,1)	(-1,7)	(33,2)	(8,7)	(24,8)	(-17,2)	(22,5)	(36,4)	(-31,1)	(21,2)	(20,2)	
L2C -22>	(22,16)	(32,4)	(16,5)	(42,2)	(1,49)	(18,7)	(-28,2)	(30,1)	(8,1)	(-10,1)	(7,3)	(2,6)	(-1,4)	(-4,2)	(40,1)	(9,2)	
L2C -21>	(22,10)	(1,36)	(-3,4)	(0,11)	(3,4)	(10,4)	(32,6)	(21,16)	(4,2)	(8,3)	(-12,3)	(2,1)	(5,2)	(11,3)	(-31,1)	(-1,7)	
L2C -20>	(7,4)	(-6,1)	(20,24)	(1,41)	(26,4)	(6,5)	(0,13)	(29,4)	(15,3)	(17,3)	(22,6)	(2,2)	(10,2)	(31,2)	(16,3)	(-12,6)	
L2C -19>	(2,6)	(20,10)	(14,5)	(11,1)	(17,9)	(56,1)	(-2,7)	(19,12)	(9,7)	(21,2)	(4,4)	(15,7)	(1,47)	(0,15)	(-6,1)	(18,5)	
L2C -18>	(1,62)	(-3,4)	(19,27)	(2,3)	(18,18)	(4,8)	(0,22)	(-1,11)	(-5,3)	(45,1)	(22,4)	(8,7)	(15,4)	(16,6)	(21,3)	(5,5)	
L2C -17>	(0,18)	(-5,1)	(5,5)	(4,10)	(18,8)	(34,3)	(8,6)	(3,8)	(1,49)	(-23,4)	(15,5)	(17,16)	(10,4)	(16,9)	(20,3)	(-4,3)	
L2C -16>	(16,49)	(11,7)	(-7,1)	(18,5)	(4,12)	(17,17)	(21,2)	(2,13)	(-1,12)	(-4,6)	(5,4)	(0,28)	(15,6)	(-14,2)	(-2,6)	(1,48)	
L2C -15>	(1,60)	(13,8)	(4,8)	(16,13)	(15,30)	(-36,2)	(-5,9)	(-7,1)	(-41,2)	(8,3)	(-1,7)	(0,17)	(33,2)	(38,1)	(-6,5)	(7,3)	
L2C -14>	(-4,8)	(0,30)	(1,57)	(-5,6)	(16,8)	(2,9)	(-2,9)	(18,3)	(15,18)	(4,5)	(-1,9)	(9,13)	(-17,1)	(8,11)	(14,9)	(19,5)	
L2C -13>	(1,50)	(4,10)	(-11,4)	(14,14)	(-1,6)	(3,7)	(9,5)	(2,10)	(-21,1)	(8,32)	(16,6)	(-5,8)	(-2,6)	(-4,6)	(-3,8)	(-6,6)	
L2C -12>	(-8,1)	(13,17)	(-6,4)	(4,16)	(10,7)	(8,11)	(7,8)	(-2,11)	(1,63)	(-1,7)	(3,6)	(14,8)	(6,6)	(12,14)	(-4,5)	(-3,8)	
L2C -11>	(38,2)	(3,9)	(2,3)	(12,26)	(1,62)	(-20,3)	(-8,7)	(-3,10)	(-12,4)	(14,8)	(-1,16)	(-14,2)	(41,3)	(11,1)	(9,6)	(6,8)	
L2C -10>	(1,61)	(32,1)	(3,9)	(2,5)	(16,4)	(-2,5)	(23,4)	(0,24)	(11,23)	(26,3)	(-4,5)	(7,5)	(-14,8)	(8,7)	(5,4)	(14,4)	
L2C -9>	(-8,13)	(2,19)	(1,66)	(13,3)	(0,8)	(-1,13)	(4,12)	(18,3)	(9,22)	(-5,7)	(-28,3)	(20,5)	(10,13)	(-11,1)	(-23,3)	(33,5)	
L2C -8>	(5,5)	(2,28)	(-4,10)	(9,25)	(4,11)	(1,117)	(8,29)	(11,8)	(-1,11)	(3,14)	(29,1)	(17,4)	(0,34)	(10,8)	(-16,6)	(-2,13)	
L2C -7>	(11,10)	(8,27)	(6,10)	(3,11)	(0,25)	(-33,3)	(-7,9)	(5,11)	(-2,7)	(12,4)	(16,5)	(-1,27)	(1,112)	(28,5)	(7,1)	(2,22)	
L2C -6>	(2,15)	(3,14)	(1,117)	(-2,1)	(-15,4)	(11,9)	(-1,24)	(-6,9)	(9,9)	(0,22)	(-9,3)	(4,19)	(8,11)	(-14,2)	(7,17)	(-10,5)	
L2C -5>	(4,29)	(-1,21)	(8,11)	(1,161)	(-8,12)	(5,20)	(-7,9)	(-18,7)	(2,26)	(-6,8)	(-15,4)	(-4,1)	(3,11)	(0,172)	(9,7)	(6,31)	
L2C -4>	(-1,33)	(5,27)	(1,113)	(19,5)	(17,7)	(-7,7)	(-2,14)	(23,5)	(4,1)	(2,22)	(15,3)	(8,14)	(0,48)	(-4,9)	(3,19)	(-14,8)	
L2C -3>	(4,36)	(-4,13)	(-3,17)	(-2,22)	(-7,8)	(2,30)	(1,191)	(9,7)	(0,84)	(22,4)	(-1,37)	(16,7)	(7,10)	(-54,1)	(-8,6)	(3,42)	
L2C -2>	(1,165)	(-1,45)	(-2,43)	(3,35)	(-6,10)	(-3,25)	(-5,14)	(-17,1)	(2,49)	(-16,11)	(20,4)	(-11,20)	(4,20)	(6,18)	(-15,5)	(0,138)	
L2C -1>	(3,26)	(-1,58)	(2,124)	(6,8)	(-2,38)	(-9,13)	(1,203)	(8,18)	(-16,11)	(-3,32)	(0,139)	(-6,15)	(-4,28)	(-20,1)	(5,16)	(32,9)	
L2C 0>	(1,11)	(-4,1)	(0,157)	(-1,3)	(-24,1)	(-2,1)	(31,1)	(-31,1)	(18,1)	(-3,1)	(9,1)	(2,1)	(44,2)	(-27,0)	(-14,0)	(-44,0)	
L2C 1>	(1,245)	(-8,4)	(4,2)	(-3,5)	(7,2)	(2,28)	(3,11)	(-2,7)	(-5,5)	(6,3)	(-6,5)	(11,2)	(-4,3)	(42,1)	(5,2)	(-1,9)	
L2C 2>	(1,201)	(-1,18)	(-2,8)	(-5,5)	(-3,10)	(-8,3)	(4,21)	(-14,3)	(-6,6)	(2,24)	(-4,4)	(22,1)	(18,4)	(3,2)	(14,3)	(-12,5)	
L2C 3>	(-1,46)	(-2,56)	(1,242)	(0,1)	(2,39)	(17,6)	(4,28)	(3,21)	(-6,9)	(8,13)	(-16,12)	(6,10)	(14,5)	(-4,19)	(-22,2)	(5,17)	
L2C 4>	(1,139)	(-24,1)	(4,171)	(5,28)	(-6,18)	(-15,3)	(11,6)	(18,4)	(-3,46)	(6,9)	(0,25)	(15,11)	(3,16)	(-20,5)	(20,5)	(-5,13)	
L2C 5>	(1,100)	(6,4)	(-4,20)	(2,21)	(3,12)	(32,1)	(11,3)	(-7,12)	(8,6)	(-8,7)	(5,8)	(-5,35)	(-9,7)	(4,30)	(-3,12)	(0,23)	
L2C 6>	(-2,9)	(1,99)	(-8,31)	(2,28)	(3,14)	(-7,27)	(-6,7)	(-40,1)	(7,3)	(-32,3)	(-46,2)	(-1,16)	(-4,12)	(-5,20)	(-12,4)	(4,4)	
L2C 7>	(1,96)	(8,8)	(-5,11)	(-11,4)	(-7,18)	(-12,12)	(-2,1)	(-9,7)	(16,5)	(0,16)	(3,8)	(2,7)	(-6,23)	(-20,4)	(17,2)	(-21,3)	
L2C 8>	(1,133)	(-5,12)	(-6,12)	(24,1)	(7,6)	(4,11)	(30,3)	(9,5)	(-1,12)	(5,5)	(-7,56)	(-15,5)	(0,24)	(16,4)	(-12,6)	(8,27)	
L2C 9>	(1,75)	(-6,8)	(2,13)	(0,10)	(-13,11)	(5,5)	(-8,29)	(-4,2)	(-7,16)	(-5,10)	(3,12)	(-1,13)	(-32,1)	(-9,24)	(-2,7)	(-3,9)	
L2C 10>	(-14,7)	(2,13)	(-15,10)	(1,56)	(-8,12)	(-16,3)	(-10,29)	(-3,10)	(11,4)	(10,5)	(-62,1)	(-12,6)	(-13,5)	(4,13)	(-25,2)	(0,14)	
L2C 11>	(-11,26)	(1,79)	(-12,6)	(-3,5)	(-4,1)	(-10,16)	(-1,12)	(5,7)	(8,4)	(-8,5)	(0,14)	(-21,4)	(-16,11)	(-15,7)	(34,1)	(-24,4)	
L2C 12>	(1,88)	(-12,20)	(3,3)	(0,13)	(-16,3)	(-11,17)	(-5,6)	(17,1)	(21,2)	(-14,9)	(-17,5)	(-40,2)	(-18,6)	(-4,6)	(4,8)	(-2,17)	
L2C 13>	(-1,7)	(-13,10)	(1,74)	(3,3)	(2,7)	(-26,3)	(5,3)	(0,9)	(-17,4)	(-5,12)	(-18,4)	(16,1)	(-12,15)	(18,6)	(4,7)	(-2,11)	
L2C 14>	(1,67)	(2,8)	(-21,2)	(-13,14)	(-15,4)	(5,4)	(-16,2)	(-2,11)	(-8,3)	(-1,8)	(-5,7)	(30,1)	(-6,3)	(-14,40)	(-34,2)	(4,4)	
L2C 15>	(-17,5)	(-14,10)	(1,58)	(6,5)	(-27,4)	(0,18)	(-3,5)	(-7,8)	(-19,3)	(2,12)	(-15,33)	(3,6)	(-5,6)	(-8,4)	(-12,3)	(-35,1)	
L2C 16>	(1,55)	(13,1)	(-2,5)	(-15,11)	(5,3)	(8,3)	(-18,6)	(-16,35)	(-21,3)	(-34,2)	(2,8)	(-17,6)	(-35,4)	(-1,3)	(-8,9)	(0,44)	
L2C 17>	(-3,3)	(1,67)	(-16,14)	(-20,5)	(4,8)	(-18,5)	(2,8)	(-17,16)	(-1,6)	(24,1)	(-30,1)	(23,3)	(-15,6)	(0,17)	(-27,5)	(-13,2)	
L2C 18>	(1,54)	(-10,5)	(0,16)	(-28,1)	(2,9)	(-15,5)	(-2,5)	(-36,1)	(-18,22)	(-14,3)	(-19,7)	(14,2)	(20,3)	(-34,2)	(-12,2)	(-11,2)	
L2C 19>	(1,47)	(-6,4)	(3,4)	(0,5)	(-18,22)	(-11,4)	(2,4)	(-10,4)	(7,2)	(-12,2)	(-24,2)	(-1,9)	(-33,2)	(-19,15)	(-46,1)	(17,1)	
L2C 20>	(1,56)	(-6,3)	(-2,4)	(-20,19)	(0,14)	(-29,1)	(-15,5)	(2,8)	(-17,2)	(-23,2)	(-7,6)	(-11,4)	(-3,5)	(-30,5)	(-28,2)	(-25,3)	
L2C 21>	(-11,1)	(-21,11)	(27,1)	(10,1)	(1,43)	(16,1)	(0,19)	(-13,1)	(-22,2)	(-19,5)	(7,3)	(-36,2)	(-2,4)	(4,4)	(-23,3)	(13,3)	
L2C 22>	(1,36)	(-9,7)	(-25,7)	(0,10)	(-4,3)	(-21,5)	(2,4)	(-17,7)	(-23,3)	(-8,2)	(4,8)	(-22,2)	(29,1)	(-13,3)	(16,1)	(-14,2)	
L2C 23>	(2,6)	(-9,3)	(-13,3)	(-21,7)	(-12,3)	(1,23)	(-1,4)	(-22,15)	(-23,14)	(-38,3)	(-2,4)	(4,6)	(25,1)	(-6,7)	(-20,1)	(5,3)	
L2C 24>	(-1,5)	(5,1)	(-24,32)	(1,38)	(-18,1)	(-25,2)	(12,1)	(-5,6)	(-28,3)	(-38,1)	(-11,5)	(25,1)	(-22,4)	(-32,2)	(-7,4)	(16,1)	
L2C 25>	(-2,4)	(1,24)	(2,6)	(-26,3)	(4,4)	(-25,16)	(-34,4)	(0,15)	(-21,4)	(5,5)	(-6,1)	(-61,1)	(-3,3)	(-39,2)	(-44,2)	(-1,4)	
L2C 26>	(1,23)	(-6,2)	(-45,1)	(-26,8)	(-22,3)	(-19,4)	(-40,1)	(-24,3)	(0,12)	(-1,7)	(-2,2)	(-7,5)	(-20,5)	(-9,1)	(-34,2)	(25,1)	
L2C 27>	(-16,2)	(-22,4)	(1,19)	(0,7)	(-51,2)	(2,5)	(-1,6)	(8,5)	(-23,2)	(-2,4)	(-26,1)	(-7,1)	(9,2)	(-27,13)	(5,2)	(-9,1)	
L2C 28>	(-27,11)	(1,31)	(-9,4)	(10,1)	(-3,2)	(14,2)	(2,7)	(3,4)	(-17,2)	(-33,5)	(8,3)	(-6,3)	(-25,2)	(-28,12)	(-29,7)	(-12,4)	
L2C 29>	(1,23)	(-32,5)	(-30,4)	(-29,9)	(-38,2)	(-28,7)	(4,3)	(-34,6)	(2,4)	(-31,1)	(17,2)	(5,2)	(-26,3)	(-33,3)	(-8,3)	(3,2)	
L2C 30>	(4,4)	(-40,1)	(1,43)	(-29,3)	(-2,6)	(-24,3)	(-28,2)	(17,1)	(-26,2)	(-4,3)	(-17,2)	(-47,1)	(3,3)	(-10,1)	(-30,8)	(0,14)	
L2C 31>	(-1,4)	(9,3)	(0,8)	(1,26)	(-8,1)	(3,2)	(12,1)	(-31,16)	(-30,7)	(-34,2)	(-3,2)	(-36,4)	(17,1)	(-2,11)	(-28,3)	(-14,4)	
L2C 32>	(-31,3)	(1,19)	(-1,5)	(2,2)	(8,13)	(6,2)	(-48,2)	(-32,16)	(0,12)	(-16,5)	(-28,3)	(-33,1)	(-21,2)	(-11,3)	(-53,2)	(-26,2)	
L2C 33>	(1,19)	(-19,3)	(4,3)	(-33,16)	(-47,1)	(-32,5)	(-21,7)	(-7,2)	(-51,1)	(-13,1)	(-26,3)	(-55,1)	(-30,1)	(-3,5)	(0,5)	(-44,4)	
L2C 34>	(1,18)	(-6,4)	(-38,3)	(-9,2)	(0,8)	(-7,1)	(-1,4)	(-30,1)	(-44,1)	(-34,7)	(-33,3)	(-5,3)	(-20,1)	(-35,1)	(-21,2)	(2,1)	
L2C 35>	(1,23)	(-35,20)	(-29,3)	(-24,2)	(-32,2)	(-36,2)	(17,1)	(-33,6)	(2,5)	(-10,1)	(-5,2)	(-49,1)	(-22,2)	(0,6)	(-34,3)	(-3,4)	
L2C 36>	(-7,4)	(-35,7)	(-36,2)	(1,30)	(10,2)	(-19,2)	(-21,3)	(3,2)	(-53,1)	(-2,1)	(0,6)	(-32,2)	(-28,2)	(-46,2)	(-6,3)	(-47,2)	
L2C 37>	(1,20)	(-7,3)	(-35,2)	(-37,5)	(-10,2)	(-41,3)	(-38,4)	(0,6)	(2,1)	(-29,2)	(-15,5)	(-23,2)	(-19,2)	(-49,2)	(-36,4)	(-42,2)	
L2C 38>	(-6,3)	(-22,2)	(-15,2)	(1,24)	(-38,10)	(-46,1)	(-17,5)	(0,12)	(6,1)	(-32,1)	(4,2)	(-20,3)	(-23,1)	(-43,1)	(3,2)	(-41,1)	
L2C 39>	(-2,4)	(-33,2)	(-14,3)	(1,22)	(-40,5)	(-7,1)	(3,1)	(-1,1)	(-22,3)	(4,1)	(2,3)	(-57,1)	(-32,1)	(-37,2)	(0,4)	(-54,1)	
L2C 40>	(1,22)	(-12,2)	(-45,3)	(-42,5)	(-39,10)	(-13,3)	(-3,3)	(-5,3)	(-15,3)	(0,2)	(-19,1)	(-40,9)	(-34,4)	(-14,2)	(-26,1)	(-7,3)	
L2C 41>	(1,7)	(0,2)	(-2,2)	(2,2)	(-1,4)	(-41,3)	(-40,2)	(-19,1)	(-10,2)	(-11,2)	(-6,1)	(-42,1)	(5,1)	(9,2)	(-26,1)	(-4,2)	
L2C 42>	(1,15)	(0,5)	(-39,3)	(-25,1)	(-29,2)	(-44,5)	(-38,1)	(-43,3)	(-41,3)	(-9,1)	(-51,1)	(-11,6)	(-1,3)	(-40,1)	(-42,8)	(-55,1)	
L2C 43>	(-6,3)	(7,1)	(1,21)	(-56,2)	(-12,2)	(-38,1)	(-3,1)	(-32,3)	(-55,1)	(-8,1)	(-48,2)	(-19,1)	(-33,3)	(13,1)	(0,8)	(11,2)	
L2C 44>	(-44,1)	(1,8)	(-13,1)	(-8,3)	(0,8)	(-58,1)	(-1,3)	(-32,3)	(-43,3)	(17,1)	(-47,2)	(-26,1)	(-25,2)	(3,1)	(-11,1)	(-6,1)	
L2C 45>	(1,16)	(0,2)	(-30,1)	(-1,4)	(-45,13)	(-42,1)	(-58,1)	(-15,2)	(-2,2)	(-24,1)	(-49,2)	(-46,2)	(-9,2)	(-44,3)	(8,2)	(4,1)	
L2C 46>	(-49,2)	(-17,3)	(-19,2)	(-7,3)	(-45,4)	(1,2)	(12,1)	(-21,1)	(4,1)	(0,4)	(-48,2)	(-34,2)	(-5,1)	(-14,3)	(-25,1)	(-32,2)	
L2C 47>	(1,21)	(0,2)	(-3,2)	(-10,1)	(-15,1)	(-49,2)	(-19,2)	(-34,2)	(-24,1)	(-47,3)	(-21,1)	(3,3)	(-26,1)	(-60,1)	(-1,1)	(-16,2)	
L2C 48>	(-16,3)	(-48,9)	(-29,1)	(-33,2)	(-52,1)	(1,13)	(-55,1)	(-53,3)	(-3,1)	(-51,2)	(-8,1)	(0,6)	(-50,1)	(-9,1)	(2,1)	(-39,1)	
L2C 49>	(-41,2)	(1,10)	(-7,1)	(-49,8)	(-46,1)	(-34,1)	(-48,1)	(-50,1)	(-5,2)	(-35,1)	(-24,2)	(0,5)	(-2,3)	(-47,1)	(-31,2)	(9,1)	
L2C 50>	(1,11)	(-17,1)	(-1,1)	(-33,1)	(-6,1)	(-58,1)	(-19,1)	(-29,2)	(-7,1)	(0,4)	(-45,1)	(-56,1)	(-31,1)	(-38,1)	(-48,1)	(-52,2)	
L2C 51>	(1,7)	(-9,1)	(-12,2)	(-5,1)	(-50,4)	(-39,1)	(-20,1)	(0,3)	(-37,1)	(-13,1)	(-8,2)	(-46,2)	(-28,1)	(-54,1)	(-49,1)	(-47,1)	
L2C 52>	(-11,1)	(1,9)	(-24,1)	(-36,1)	(-50,1)	(-49,1)	(-41,2)	(5,1)	(-51,2)	(-5,1)	(-18,1)	(-57,1)	(-52,3)	(-48,1)	(-29,1)	(0,2)	
L2C 53>	(-48,1)	(-2,2)	(-14,1)	(-53,1)	(-52,1)	(-3,1)	(-42,1)	(-34,1)	(1,2)	(-18,1)	(-58,1)	(-37,1)	(0,1)	(-45,1)	(-35,1)	(-22,1)	
L2C 54>	(1,3)	(-54,3)	(-53,1)	(-21,1)	(5,1)	(-44,1)	(-56,1)	(-8,1)	(-24,1)	(-52,1)	(-25,1)	(0,5)	(-3,1)	(-11,1)	(-13,1)	(-39,1)	
L2C 55>	(-54,7)	(-18,1)	(3,1)	(-51,1)	(-26,1)	(-43,1)	(-1,1)	(-55,3)	(1,3)	(4,1)	(-47,1)	(-2,1)	(-10,1)	(-37,1)	(-28,2)	(-48,1)	
L2C 56>	(1,2)	(-21,1)	(-27,2)	(-33,1)	(-2,2)	(0,3)	(-31,2)	(-5,1)	(-61,1)	(-58,1)	(-57,1)	(-56,1)	(2,1)	(-1,1)	(-46,1)	(-29,1)	
L2C 57>	(1,4)	(0,4)	(-2,1)	(-29,2)	(-56,1)	(-52,1)	(-4,1)	(-57,2)	(-16,1)	(-43,1)	(2,1)	(1,0)	(1,0)	(1,0)	(1,0)	(1,0)	
L2C 58>	(-26,1)	(-57,2)	(-56,2)	(-7,1)	(-42,2)	(-59,1)	(-58,1)	(1,3)	(-50,1)	(-49,1)	(-5,1)	(-29,1)	(-12,1)	(1,0)	(1,0)	(1,0)	
L2C 59>	(-36,1)	(-58,5)	(-59,1)	(3,1)	(1,1)	(-26,1)	(0,2)	(-31,2)	(-43,1)	(-55,1)	(-42,1)	(-38,1)	(-54,1)	(-39,1)	(-40,1)	(-47,1)	
L2C 60>	(-54,1)	(-30,1)	(-58,1)	(1,1)	(-59,1)	(1,0)	(1,0)	(1,0)	(1,0)	(1,0)	(1,0)	(1,0)	(1,0)	(1,0)	(1,0)	(1,0)	
L2C 61>	(-35,1)	(1,1)	(-34,1)	(-49,1)	(-25,1)	(-60,1)	(1,0)	(1,0)	(1,0)	(1,0)	(1,0)	(1,0)	(1,0)	(1,0)	(1,0)	(1,0)	
L2C 62>	(-31,1)	(-62,1)	(1,0)	(1,0)	(1,0)	(1,0)	(1,0)	(1,0)	(1,0)	(1,0)	(1,0)	(1,0)	(1,0)	(1,0)	(1,0)	(1,0)	
L2C 63>	(-1,1)	(-55,1)	(-50,1)	(1,0)	(1,0)	(1,0)	(1,0)	(1,0)	(1,0)	(1,0)	(1,0)	(1,0)	(1,0)	(1,0)	(1,0)	(1,0)	

DRAM Statistics
 CHANNEL 0
 RQ ROW_BUFFER_HIT:      41465  ROW_BUFFER_MISS:      47605
 DBUS_CONGESTED:      60269
 WQ ROW_BUFFER_HIT:        729  ROW_BUFFER_MISS:       6439  FULL:          0

 AVG_CONGESTED_CYCLE: 6
